11234
Actelion Java MolfileCreator 2.0

  0  0  0  0  0  0              0 V3000
M  V30 BEGIN CTAB
M  V30 COUNTS 33 35 0 0 0
M  V30 BEGIN ATOM
M  V30 1 Cl 0.0 0.0 0.0 0
M  V30 2 C -0.0118 -1.4899 0.0 0
M  V30 3 C -1.3243 -2.2349 0.0 0
M  V30 4 C 1.277 -2.2349 0.0 0
M  V30 5 N -2.6369 -1.4781 0.0 0
M  V30 6 C -1.3362 -3.7248 0.0 0
M  V30 7 C 1.2652 -3.7248 0.0 0
M  V30 8 C -3.9495 -2.2112 0.0 0
M  V30 9 C -0.0472 -4.4579 0.0 0
M  V30 10 N 2.5541 -4.4579 0.0 0 CHG=1
M  V30 11 O -3.9613 -3.7011 0.0 0
M  V30 12 C -5.262 -1.4544 0.0 0 CFG=1
M  V30 13 O 3.9968 -4.0559 0.0 0
M  V30 14 O 2.5423 -5.9479 0.0 0 CHG=-1
M  V30 15 N -6.5746 -2.1876 0.0 0
M  V30 16 C -5.2739 0.0591 0.0 0
M  V30 17 C -7.8872 -1.4308 0.0 0
M  V30 18 C -3.9849 0.8159 0.0 0
M  V30 19 O -7.899 0.0827 0.0 0
M  V30 20 C -9.1997 -2.1639 0.0 0
M  V30 21 C -3.9968 2.3295 0.0 0
M  V30 22 C -2.696 0.0827 0.0 0
M  V30 23 C -10.5123 -1.4071 0.0 0
M  V30 24 C -9.2115 -3.6538 0.0 0
M  V30 25 C -2.7078 3.0862 0.0 0
M  V30 26 C -1.4071 0.8395 0.0 0
M  V30 27 C -11.8248 -2.1403 0.0 0
M  V30 28 C -10.5241 -4.387 0.0 0
M  V30 29 C -1.4189 2.3531 0.0 0
M  V30 30 C -11.8367 -3.6302 0.0 0
M  V30 31 N -13.1492 -4.3633 0.0 0
M  V30 32 C -13.1611 -5.8533 0.0 0
M  V30 33 C -14.4618 -3.6065 0.0 0
M  V30 END ATOM
M  V30 BEGIN BOND
M  V30 1 1 1 2
M  V30 2 2 2 3
M  V30 3 1 2 4
M  V30 4 1 3 5
M  V30 5 1 3 6
M  V30 6 2 4 7
M  V30 7 1 5 8
M  V30 8 2 6 9
M  V30 9 1 7 10
M  V30 10 2 8 11
M  V30 11 1 8 12
M  V30 12 2 10 13
M  V30 13 1 10 14
M  V30 14 1 12 15 CFG=1
M  V30 15 1 12 16
M  V30 16 1 15 17
M  V30 17 1 16 18
M  V30 18 2 17 19
M  V30 19 1 17 20
M  V30 20 2 18 21
M  V30 21 1 18 22
M  V30 22 2 20 23
M  V30 23 1 20 24
M  V30 24 1 21 25
M  V30 25 2 22 26
M  V30 26 1 23 27
M  V30 27 2 24 28
M  V30 28 2 25 29
M  V30 29 2 27 30
M  V30 30 1 30 31
M  V30 31 1 31 32
M  V30 32 1 31 33
M  V30 33 1 7 9
M  V30 34 1 26 29
M  V30 35 1 28 30
M  V30 END BOND
M  V30 BEGIN COLLECTION
M  V30 MDLV30/STERAC1 ATOMS=(1 12)
M  V30 END COLLECTION
M  V30 END CTAB
M  END
>  <Ligand InChI>
InChI=1/C24H23ClN4O4/c1-28(2)18-10-8-17(9-11-18)23(30)27-22(14-16-6-4-3-5-7-16)24(31)26-21-13-12-19(29(32)33)15-20(21)25/h3-13,15,22H,14H2,1-2H3,(H,26,31)(H,27,30)/t22-/s2

>  <Ligand InChI Key>
NBBWJEWPUKPHPZ-ANBDAQEENA-N

>  <BindingDB MonomerID>
11234

>  <Target Name Assigned by Curator or DataSource>
3C-like proteinase (3CL-PRO)

>  <Target Source Organism According to Curator or DataSource>
Human SARS coronavirus

>  <IC50 (nM)>
60

>  <PMID>
15974598

>  <Ligand HET ID in PDB>


>  <PDB ID(s) for Ligand-Target Complex>


>  <PubChem CID>
11317290

>  <PubChem SID>
46511786

>  <ChEMBL ID of Ligand>


>  <DrugBank ID of Ligand>


>  <ZINC ID of Ligand>
ZINC13646492

>  <PDB ID(s) of Target Chain>
1Q2W,1QZ8,1UJ1,1UK2,1UK3,1UK4,1UW7,1WOF,1Z1I,2A5A,2A5I,2A5K,2ACF,2AHM,2ALV,2AMD,2AMQ,2BX3,2BX4,2C3S,2D2D,2DUC,2FAV,2FE8,2FYG,2G9T,2GA6,2GDT,2GRI,2GT7,2GT8,2GTB,2GX4,2GZ7,2GZ8,2GZ9,2H2Z,2HOB,2HSX,2IDY,2JZF,2K7X,2K87,2KAF,2LIZ,2OP9,2OZK,2RNK,2V6N,2VJ1,2XYQ,2XYR,2XYV,2Z3C,2Z3D,2Z3E,2Z94,2Z9G,2Z9J,2Z9K,2Z9L,2ZU4,2ZU5,3D62,3E91,3E9S,3EA7,3EA8,3EBN,3IWM,3M3V,3MJ5,3R24,3SN8,3SNA,3SNB,3SNC,3SND,3SNE,3SZN,3TIT,3TIU,3TNS,3TNT,3V3M,3VB3,3VB4,3VB5,3VB6,3VB7,4MDS,4MM3,4OVZ,4OW0,5C8S,5C8T,5C8U,5F22,5N19,5N5O,5NFY,5TL6,5TL7,5Y3E,5Y3Q,6JYT,6LNQ,6LNY,6LO0,6NUR,6NUS,6WCO,6XHL,6XHN,6XHO,6XMK,6XOA,7C2K

>  <Smiles>
CN(C)c(cc1)ccc1C(NC(Cc1ccccc1)C(Nc(ccc([N+]([O-])=O)c1)c1Cl)=O)=O

$$$$
11241
Actelion Java MolfileCreator 2.0

  0  0  0  0  0  0              0 V3000
M  V30 BEGIN CTAB
M  V30 COUNTS 51 54 0 0 0
M  V30 BEGIN ATOM
M  V30 1 Cl 0.0 0.0 0.0 0
M  V30 2 C -0.0118 1.5156 0.0 0
M  V30 3 C 1.2787 2.2734 0.0 0
M  V30 4 C -1.3261 2.2734 0.0 0
M  V30 5 N 2.5694 1.5392 0.0 0
M  V30 6 C 1.2669 3.789 0.0 0
M  V30 7 C -1.3379 3.789 0.0 0
M  V30 8 C 3.86 2.297 0.0 0
M  V30 9 C -0.0473 4.5468 0.0 0
M  V30 10 N -2.6523 4.5468 0.0 0 CHG=1
M  V30 11 O 3.8482 3.8126 0.0 0
M  V30 12 C 5.1506 1.5629 0.0 0 CFG=1
M  V30 13 O -3.9666 3.8008 0.0 0
M  V30 14 O -2.6641 6.0624 0.0 0 CHG=-1
M  V30 15 N 6.4413 2.3207 0.0 0
M  V30 16 C 5.1388 0.071 0.0 0
M  V30 17 C 7.7319 1.5866 0.0 0
M  V30 18 C 3.8245 -0.663 0.0 0
M  V30 19 O 7.7201 0.0947 0.0 0
M  V30 20 C 9.0225 2.3444 0.0 0 CFG=1
M  V30 21 C 2.4391 -0.0355 0.0 0
M  V30 22 C 3.9666 -2.1431 0.0 0
M  V30 23 O 9.0107 3.86 0.0 0
M  V30 24 C 10.3132 1.6103 0.0 0
M  V30 25 C 1.2077 -0.8998 0.0 0
M  V30 26 C 2.7351 -3.0075 0.0 0
M  V30 27 C 11.6038 2.3681 0.0 0
M  V30 28 C 1.3498 -2.3799 0.0 0
M  V30 29 O 11.592 3.8837 0.0 0
M  V30 30 N 12.8944 1.634 0.0 0
M  V30 31 C 14.1851 2.3918 0.0 0 CFG=2
M  V30 32 C 15.4757 1.6576 0.0 0
M  V30 33 C 14.1732 3.9074 0.0 0
M  V30 34 O 15.4639 0.1657 0.0 0
M  V30 35 N 16.7663 2.4154 0.0 0
M  V30 36 C 15.4639 4.6652 0.0 0
M  V30 37 C 18.057 1.6813 0.0 0
M  V30 38 C 15.4757 6.1808 0.0 0
M  V30 39 C 16.7427 3.8955 0.0 0
M  V30 40 C 19.3476 2.4391 0.0 0
M  V30 41 C 18.0451 0.1894 0.0 0
M  V30 42 C 16.7782 6.9149 0.0 0
M  V30 43 C 18.0451 4.6297 0.0 0
M  V30 44 Cl 19.3358 3.9547 0.0 0
M  V30 45 C 20.6382 1.705 0.0 0
M  V30 46 C 19.3358 -0.5446 0.0 0
M  V30 47 C 18.057 6.1453 0.0 0
M  V30 48 C 20.6264 0.2131 0.0 0
M  V30 49 N 21.917 -0.5209 0.0 0 CHG=1
M  V30 50 O 23.2077 0.2368 0.0 0
M  V30 51 O 21.9052 -2.0129 0.0 0 CHG=-1
M  V30 END ATOM
M  V30 BEGIN BOND
M  V30 1 1 1 2
M  V30 2 2 2 3
M  V30 3 1 2 4
M  V30 4 1 3 5
M  V30 5 1 3 6
M  V30 6 2 4 7
M  V30 7 1 5 8
M  V30 8 2 6 9
M  V30 9 1 7 10
M  V30 10 2 8 11
M  V30 11 1 8 12
M  V30 12 2 10 13
M  V30 13 1 10 14
M  V30 14 1 12 15 CFG=1
M  V30 15 1 12 16
M  V30 16 1 15 17
M  V30 17 1 16 18
M  V30 18 2 17 19
M  V30 19 1 17 20
M  V30 20 2 18 21
M  V30 21 1 18 22
M  V30 22 1 20 23 CFG=1
M  V30 23 1 20 24
M  V30 24 1 21 25
M  V30 25 2 22 26
M  V30 26 1 24 27
M  V30 27 2 25 28
M  V30 28 2 27 29
M  V30 29 1 27 30
M  V30 30 1 31 30 CFG=1
M  V30 31 1 31 32
M  V30 32 1 31 33
M  V30 33 2 32 34
M  V30 34 1 32 35
M  V30 35 1 33 36
M  V30 36 1 35 37
M  V30 37 2 36 38
M  V30 38 1 36 39
M  V30 39 2 37 40
M  V30 40 1 37 41
M  V30 41 1 38 42
M  V30 42 2 39 43
M  V30 43 1 40 44
M  V30 44 1 40 45
M  V30 45 2 41 46
M  V30 46 2 42 47
M  V30 47 2 45 48
M  V30 48 1 48 49
M  V30 49 2 49 50
M  V30 50 1 49 51
M  V30 51 1 7 9
M  V30 52 1 26 28
M  V30 53 1 43 47
M  V30 54 1 46 48
M  V30 END BOND
M  V30 BEGIN COLLECTION
M  V30 MDLV30/STERAC1 ATOMS=(3 12 20 31)
M  V30 END COLLECTION
M  V30 END CTAB
M  END
>  <Ligand InChI>
InChI=1/C34H30Cl2N6O9/c35-24-17-22(41(48)49)11-13-26(24)38-32(45)28(15-20-7-3-1-4-8-20)37-31(44)19-30(43)34(47)40-29(16-21-9-5-2-6-10-21)33(46)39-27-14-12-23(42(50)51)18-25(27)36/h1-14,17-18,28-30,43H,15-16,19H2,(H,37,44)(H,38,45)(H,39,46)(H,40,47)/t28-,29-,30-/s2

>  <Ligand InChI Key>
FCKXGFANXSHGAW-GZQLONLRNA-N

>  <BindingDB MonomerID>
11241

>  <Target Name Assigned by Curator or DataSource>
3C-like proteinase (3CL-PRO)

>  <Target Source Organism According to Curator or DataSource>
Human SARS coronavirus

>  <IC50 (nM)>
4000

>  <PMID>
15974598

>  <Ligand HET ID in PDB>


>  <PDB ID(s) for Ligand-Target Complex>


>  <PubChem CID>
11491101

>  <PubChem SID>
46511792

>  <ChEMBL ID of Ligand>


>  <DrugBank ID of Ligand>


>  <ZINC ID of Ligand>
ZINC95606624

>  <PDB ID(s) of Target Chain>
1Q2W,1QZ8,1UJ1,1UK2,1UK3,1UK4,1UW7,1WOF,1Z1I,2A5A,2A5I,2A5K,2ACF,2AHM,2ALV,2AMD,2AMQ,2BX3,2BX4,2C3S,2D2D,2DUC,2FAV,2FE8,2FYG,2G9T,2GA6,2GDT,2GRI,2GT7,2GT8,2GTB,2GX4,2GZ7,2GZ8,2GZ9,2H2Z,2HOB,2HSX,2IDY,2JZF,2K7X,2K87,2KAF,2LIZ,2OP9,2OZK,2RNK,2V6N,2VJ1,2XYQ,2XYR,2XYV,2Z3C,2Z3D,2Z3E,2Z94,2Z9G,2Z9J,2Z9K,2Z9L,2ZU4,2ZU5,3D62,3E91,3E9S,3EA7,3EA8,3EBN,3IWM,3M3V,3MJ5,3R24,3SN8,3SNA,3SNB,3SNC,3SND,3SNE,3SZN,3TIT,3TIU,3TNS,3TNT,3V3M,3VB3,3VB4,3VB5,3VB6,3VB7,4MDS,4MM3,4OVZ,4OW0,5C8S,5C8T,5C8U,5F22,5N19,5N5O,5NFY,5TL6,5TL7,5Y3E,5Y3Q,6JYT,6LNQ,6LNY,6LO0,6NUR,6NUS,6WCO,6XHL,6XHN,6XHO,6XMK,6XOA,7C2K

>  <Smiles>
[O-][N+](c(cc1)cc(Cl)c1NC([C@H](Cc1ccccc1)NC(C[C@@H](C(N[C@@H](Cc1ccccc1)C(Nc(ccc([N+]([O-])=O)c1)c1Cl)=O)=O)O)=O)=O)=O

$$$$
11261
Actelion Java MolfileCreator 2.0

  0  0  0  0  0  0              0 V3000
M  V30 BEGIN CTAB
M  V30 COUNTS 40 42 0 0 0
M  V30 BEGIN ATOM
M  V30 1 O 0.0 0.0 0.0 0
M  V30 2 C -0.0118 1.5105 0.0 0
M  V30 3 O 1.2745 2.2657 0.0 0
M  V30 4 C -1.3217 2.2657 0.0 0
M  V30 5 C 2.5608 1.5341 0.0 0
M  V30 6 C -2.6316 1.5341 0.0 0
M  V30 7 C 3.8471 2.2893 0.0 0
M  V30 8 C -3.9415 2.2893 0.0 0 CFG=1
M  V30 9 N -5.2514 1.5577 0.0 0
M  V30 10 C -3.9533 3.7999 0.0 0
M  V30 11 C -6.5613 2.3129 0.0 0
M  V30 12 C -2.667 4.5551 0.0 0
M  V30 13 O -6.5731 3.8235 0.0 0
M  V30 14 C -7.8712 1.5813 0.0 0 CFG=1
M  V30 15 C -2.6788 6.0657 0.0 0
M  V30 16 C -1.3807 3.8117 0.0 0
M  V30 17 N -9.1811 2.3365 0.0 0
M  V30 18 C -7.883 0.0944 0.0 0
M  V30 19 C -1.3925 6.8327 0.0 0
M  V30 20 C -0.0944 4.5669 0.0 0
M  V30 21 C -10.491 1.6049 0.0 0
M  V30 22 C -6.5967 -0.6372 0.0 0
M  V30 23 C -0.1062 6.0893 0.0 0
M  V30 24 O -10.5028 0.118 0.0 0
M  V30 25 C -11.8009 2.3601 0.0 0
M  V30 26 C -6.6085 -2.1241 0.0 0
M  V30 27 C -5.3104 0.118 0.0 0
M  V30 28 C -13.1109 1.6285 0.0 0
M  V30 29 C -5.3222 -2.8558 0.0 0
M  V30 30 C -4.0241 -0.6136 0.0 0
M  V30 31 C -14.4208 2.3838 0.0 0
M  V30 32 C -4.0359 -2.1005 0.0 0
M  V30 33 C -15.7307 1.6521 0.0 0
M  V30 34 C -14.4326 3.8943 0.0 0
M  V30 35 C -17.0406 2.4074 0.0 0
M  V30 36 C -15.7425 4.6495 0.0 0
M  V30 37 C -17.0524 3.9179 0.0 0
M  V30 38 N -18.3623 4.6731 0.0 0
M  V30 39 C -19.6722 3.9297 0.0 0
M  V30 40 C -18.3741 6.1837 0.0 0
M  V30 END ATOM
M  V30 BEGIN BOND
M  V30 1 2 1 2
M  V30 2 1 2 3
M  V30 3 1 2 4
M  V30 4 1 3 5
M  V30 5 2 4 6
M  V30 6 1 5 7
M  V30 7 1 6 8
M  V30 8 1 8 9 CFG=1
M  V30 9 1 8 10
M  V30 10 1 9 11
M  V30 11 1 10 12
M  V30 12 2 11 13
M  V30 13 1 11 14
M  V30 14 2 12 15
M  V30 15 1 12 16
M  V30 16 1 14 17 CFG=3
M  V30 17 1 14 18
M  V30 18 1 15 19
M  V30 19 2 16 20
M  V30 20 1 17 21
M  V30 21 1 18 22
M  V30 22 2 19 23
M  V30 23 2 21 24
M  V30 24 1 21 25
M  V30 25 2 22 26
M  V30 26 1 22 27
M  V30 27 2 25 28
M  V30 28 1 26 29
M  V30 29 2 27 30
M  V30 30 1 28 31
M  V30 31 2 29 32
M  V30 32 2 31 33
M  V30 33 1 31 34
M  V30 34 1 33 35
M  V30 35 2 34 36
M  V30 36 2 35 37
M  V30 37 1 37 38
M  V30 38 1 38 39
M  V30 39 1 38 40
M  V30 40 1 20 23
M  V30 41 1 30 32
M  V30 42 1 36 37
M  V30 END BOND
M  V30 BEGIN COLLECTION
M  V30 MDLV30/STERAC1 ATOMS=(2 8 14)
M  V30 END COLLECTION
M  V30 END CTAB
M  END
>  <Ligand InChI>
InChI=1/C33H37N3O4/c1-4-40-32(38)22-18-28(23-26-11-7-5-8-12-26)34-33(39)30(24-27-13-9-6-10-14-27)35-31(37)21-17-25-15-19-29(20-16-25)36(2)3/h5-22,28,30H,4,23-24H2,1-3H3,(H,34,39)(H,35,37)/b21-17+,22-18+/t28-,30+/s2

>  <Ligand InChI Key>
JWPLKCWYGMPRGX-XWAXLTSUNA-N

>  <BindingDB MonomerID>
11261

>  <Target Name Assigned by Curator or DataSource>
3C-like proteinase (3CL-PRO)

>  <Target Source Organism According to Curator or DataSource>
Human SARS coronavirus

>  <IC50 (nM)>
1000

>  <PMID>
15994085

>  <Ligand HET ID in PDB>


>  <PDB ID(s) for Ligand-Target Complex>


>  <PubChem CID>
11555658

>  <PubChem SID>
46511809

>  <ChEMBL ID of Ligand>


>  <DrugBank ID of Ligand>


>  <ZINC ID of Ligand>
ZINC14947930

>  <PDB ID(s) of Target Chain>
1Q2W,1QZ8,1UJ1,1UK2,1UK3,1UK4,1UW7,1WOF,1Z1I,2A5A,2A5I,2A5K,2ACF,2AHM,2ALV,2AMD,2AMQ,2BX3,2BX4,2C3S,2D2D,2DUC,2FAV,2FE8,2FYG,2G9T,2GA6,2GDT,2GRI,2GT7,2GT8,2GTB,2GX4,2GZ7,2GZ8,2GZ9,2H2Z,2HOB,2HSX,2IDY,2JZF,2K7X,2K87,2KAF,2LIZ,2OP9,2OZK,2RNK,2V6N,2VJ1,2XYQ,2XYR,2XYV,2Z3C,2Z3D,2Z3E,2Z94,2Z9G,2Z9J,2Z9K,2Z9L,2ZU4,2ZU5,3D62,3E91,3E9S,3EA7,3EA8,3EBN,3IWM,3M3V,3MJ5,3R24,3SN8,3SNA,3SNB,3SNC,3SND,3SNE,3SZN,3TIT,3TIU,3TNS,3TNT,3V3M,3VB3,3VB4,3VB5,3VB6,3VB7,4MDS,4MM3,4OVZ,4OW0,5C8S,5C8T,5C8U,5F22,5N19,5N5O,5NFY,5TL6,5TL7,5Y3E,5Y3Q,6JYT,6LNQ,6LNY,6LO0,6NUR,6NUS,6WCO,6XHL,6XHN,6XHO,6XMK,6XOA,7C2K

>  <Smiles>
CCOC(/C=C/[C@H](Cc1ccccc1)NC([C@H](Cc1ccccc1)NC(/C=C/c(cc1)ccc1N(C)C)=O)=O)=O

$$$$
11264
Actelion Java MolfileCreator 2.0

  0  0  0  0  0  0              0 V3000
M  V30 BEGIN CTAB
M  V30 COUNTS 30 33 0 0 0
M  V30 BEGIN ATOM
M  V30 1 Cl 0.0 0.0 0.0 0
M  V30 2 C 1.2445 0.7628 0.0 0
M  V30 3 C 1.2245 2.2482 0.0 0
M  V30 4 C 2.5092 0.0401 0.0 0
M  V30 5 C 2.4891 3.011 0.0 0
M  V30 6 C 3.7738 0.8029 0.0 0
M  V30 7 Cl 2.469 4.4965 0.0 0
M  V30 8 C 3.7537 2.2884 0.0 0
M  V30 9 N 5.0184 0.0802 0.0 0
M  V30 10 C 6.283 0.843 0.0 0
M  V30 11 O 6.263 2.3285 0.0 0
M  V30 12 C 7.5477 0.1204 0.0 0
M  V30 13 S 8.7923 0.8832 0.0 0
M  V30 14 C 10.0569 0.1605 0.0 0
M  V30 15 N 11.3216 0.9233 0.0 0
M  V30 16 N 10.0368 -1.2847 0.0 0
M  V30 17 C 12.5862 0.2007 0.0 0
M  V30 18 C 11.3015 -2.0073 0.0 0
M  V30 19 C 13.8308 0.9635 0.0 0
M  V30 20 C 12.5661 -1.2445 0.0 0
M  V30 21 N 16.3601 0.9836 0.0 0
M  V30 22 C 13.8107 2.449 0.0 0
M  V30 23 C 16.34 2.469 0.0 0
M  V30 24 S 15.0754 3.2118 0.0 0
M  V30 25 C 17.6047 3.2318 0.0 0
M  V30 26 C 18.8693 2.5092 0.0 0
M  V30 27 C 17.5846 4.7173 0.0 0
M  V30 28 C 20.1139 3.272 0.0 0
M  V30 29 C 18.8492 5.4801 0.0 0
M  V30 30 C 20.0938 4.7574 0.0 0
M  V30 END ATOM
M  V30 BEGIN BOND
M  V30 1 1 1 2
M  V30 2 2 2 3
M  V30 3 1 2 4
M  V30 4 1 3 5
M  V30 5 2 4 6
M  V30 6 1 5 7
M  V30 7 2 5 8
M  V30 8 1 6 9
M  V30 9 1 9 10
M  V30 10 2 10 11
M  V30 11 1 10 12
M  V30 12 1 12 13
M  V30 13 1 13 14
M  V30 14 2 14 15
M  V30 15 1 14 16
M  V30 16 1 15 17
M  V30 17 2 16 18
M  V30 18 1 17 19
M  V30 19 2 17 20
M  V30 20 1 19 21
M  V30 21 2 19 22
M  V30 22 2 21 23
M  V30 23 1 22 24
M  V30 24 1 23 25
M  V30 25 2 25 26
M  V30 26 1 25 27
M  V30 27 1 26 28
M  V30 28 2 27 29
M  V30 29 2 28 30
M  V30 30 1 6 8
M  V30 31 1 18 20
M  V30 32 1 23 24
M  V30 33 1 29 30
M  V30 END BOND
M  V30 END CTAB
M  END
>  <Ligand InChI>
InChI=1S/C21H14Cl2N4OS2/c22-14-8-15(23)10-16(9-14)25-19(28)12-30-21-24-7-6-17(27-21)18-11-29-20(26-18)13-4-2-1-3-5-13/h1-11H,12H2,(H,25,28)

>  <Ligand InChI Key>
LILOEJREEQFTPM-UHFFFAOYSA-N

>  <BindingDB MonomerID>
11264

>  <Target Name Assigned by Curator or DataSource>
3C-like proteinase (3CL-PRO)

>  <Target Source Organism According to Curator or DataSource>
Human SARS coronavirus

>  <IC50 (nM)>
3000

>  <PMID>
16759091

>  <Ligand HET ID in PDB>


>  <PDB ID(s) for Ligand-Target Complex>


>  <PubChem CID>
2744814

>  <PubChem SID>
46511812

>  <ChEMBL ID of Ligand>


>  <DrugBank ID of Ligand>


>  <ZINC ID of Ligand>
ZINC01047806

>  <PDB ID(s) of Target Chain>
1Q2W,1QZ8,1UJ1,1UK2,1UK3,1UK4,1UW7,1WOF,1Z1I,2A5A,2A5I,2A5K,2ACF,2AHM,2ALV,2AMD,2AMQ,2BX3,2BX4,2C3S,2D2D,2DUC,2FAV,2FE8,2FYG,2G9T,2GA6,2GDT,2GRI,2GT7,2GT8,2GTB,2GX4,2GZ7,2GZ8,2GZ9,2H2Z,2HOB,2HSX,2IDY,2JZF,2K7X,2K87,2KAF,2LIZ,2OP9,2OZK,2RNK,2V6N,2VJ1,2XYQ,2XYR,2XYV,2Z3C,2Z3D,2Z3E,2Z94,2Z9G,2Z9J,2Z9K,2Z9L,2ZU4,2ZU5,3D62,3E91,3E9S,3EA7,3EA8,3EBN,3IWM,3M3V,3MJ5,3R24,3SN8,3SNA,3SNB,3SNC,3SND,3SNE,3SZN,3TIT,3TIU,3TNS,3TNT,3V3M,3VB3,3VB4,3VB5,3VB6,3VB7,4MDS,4MM3,4OVZ,4OW0,5C8S,5C8T,5C8U,5F22,5N19,5N5O,5NFY,5TL6,5TL7,5Y3E,5Y3Q,6JYT,6LNQ,6LNY,6LO0,6NUR,6NUS,6WCO,6XHL,6XHN,6XHO,6XMK,6XOA,7C2K

>  <Smiles>
O=C(CSc1nc(-c2csc(-c3ccccc3)n2)ccn1)Nc1cc(Cl)cc(Cl)c1

$$$$
429100
Actelion Java MolfileCreator 2.0

  0  0  0  0  0  0              0 V3000
M  V30 BEGIN CTAB
M  V30 COUNTS 43 45 0 0 0
M  V30 BEGIN ATOM
M  V30 1 O 0.0 0.0 0.0 0
M  V30 2 C -0.0353 -1.4859 0.0 0
M  V30 3 N 1.1439 -2.3822 0.0 0
M  V30 4 C -1.2736 -2.335 0.0 0 CFG=1
M  V30 5 C 0.6368 -3.7856 0.0 0
M  V30 6 C -0.8491 -3.762 0.0 0
M  V30 7 C -2.7006 -1.8279 0.0 0
M  V30 8 C -3.8445 -2.7949 0.0 0 CFG=2
M  V30 9 N -5.2715 -2.2878 0.0 0
M  V30 10 C -3.5733 -4.2573 0.0 0
M  V30 11 C -6.4154 -3.2549 0.0 0
M  V30 12 O -4.7172 -5.2243 0.0 0
M  V30 13 O -6.1442 -4.7172 0.0 0
M  V30 14 C -7.8424 -2.7478 0.0 0 CFG=1
M  V30 15 N -8.9863 -3.7148 0.0 0
M  V30 16 C -8.1372 -1.2618 0.0 0
M  V30 17 C -10.4133 -3.2077 0.0 0
M  V30 18 C -7.0169 -0.2712 0.0 0
M  V30 19 O -10.7081 -1.7218 0.0 0
M  V30 20 C -11.5573 -4.1747 0.0 0 CFG=1
M  V30 21 C -7.3117 1.2146 0.0 0
M  V30 22 C -5.6135 -0.7547 0.0 0
M  V30 23 N -12.9842 -3.6676 0.0 0
M  V30 24 C -11.286 -5.6371 0.0 0
M  V30 25 C -6.1914 2.2053 0.0 0
M  V30 26 C -4.4931 0.2358 0.0 0
M  V30 27 C -14.1282 -4.6347 0.0 0
M  V30 28 O -9.8826 -6.1206 0.0 0
M  V30 29 C -12.43 -6.6041 0.0 0
M  V30 30 C -4.788 1.7218 0.0 0
M  V30 31 O -13.8569 -6.097 0.0 0
M  V30 32 O -15.5551 -4.1276 0.0 0
M  V30 33 C -9.6114 -7.583 0.0 0
M  V30 34 C -16.6991 -5.0946 0.0 0
M  V30 35 C -11.0973 -7.8542 0.0 0
M  V30 36 C -8.149 -7.2881 0.0 0
M  V30 37 C -9.3401 -9.0453 0.0 0
M  V30 38 C -18.1261 -4.5875 0.0 0
M  V30 39 C -19.27 -5.5545 0.0 0
M  V30 40 C -18.4209 -3.1016 0.0 0
M  V30 41 C -20.697 -5.0474 0.0 0
M  V30 42 C -19.8479 -2.5944 0.0 0
M  V30 43 C -20.9918 -3.5615 0.0 0
M  V30 END ATOM
M  V30 BEGIN BOND
M  V30 1 2 1 2
M  V30 2 1 2 3
M  V30 3 1 2 4
M  V30 4 1 3 5
M  V30 5 1 4 6
M  V30 6 1 4 7 CFG=1
M  V30 7 1 7 8
M  V30 8 1 8 9 CFG=1
M  V30 9 1 8 10
M  V30 10 1 9 11
M  V30 11 2 10 12
M  V30 12 2 11 13
M  V30 13 1 11 14
M  V30 14 1 14 15 CFG=1
M  V30 15 1 14 16
M  V30 16 1 15 17
M  V30 17 1 16 18
M  V30 18 2 17 19
M  V30 19 1 17 20
M  V30 20 1 18 21
M  V30 21 1 18 22
M  V30 22 1 20 23 CFG=3
M  V30 23 1 20 24
M  V30 24 1 21 25
M  V30 25 1 22 26
M  V30 26 1 23 27
M  V30 27 1 24 28
M  V30 28 1 24 29
M  V30 29 1 25 30
M  V30 30 2 27 31
M  V30 31 1 27 32
M  V30 32 1 28 33
M  V30 33 1 32 34
M  V30 34 1 33 35
M  V30 35 1 33 36
M  V30 36 1 33 37
M  V30 37 1 34 38
M  V30 38 2 38 39
M  V30 39 1 38 40
M  V30 40 1 39 41
M  V30 41 2 40 42
M  V30 42 2 41 43
M  V30 43 1 5 6
M  V30 44 1 26 30
M  V30 45 1 42 43
M  V30 END BOND
M  V30 BEGIN COLLECTION
M  V30 MDLV30/STEABS ATOMS=(4 4 8 14 20)
M  V30 END COLLECTION
M  V30 END CTAB
M  END
>  <Ligand InChI>
InChI=1S/C32H48N4O7/c1-21(43-32(2,3)4)27(36-31(41)42-20-23-13-9-6-10-14-23)30(40)35-26(17-22-11-7-5-8-12-22)29(39)34-25(19-37)18-24-15-16-33-28(24)38/h6,9-10,13-14,19,21-22,24-27H,5,7-8,11-12,15-18,20H2,1-4H3,(H,33,38)(H,34,39)(H,35,40)(H,36,41)/t21?,24-,25-,26-,27-/m0/s1

>  <Ligand InChI Key>
YFUZVOLEKQFVCQ-OKCRAPNYSA-N

>  <BindingDB MonomerID>
429100

>  <Target Name Assigned by Curator or DataSource>
3C-like proteinase (3CL-PRO)

>  <Target Source Organism According to Curator or DataSource>
Human SARS coronavirus

>  <IC50 (nM)>
600

>  <PMID>
26878082

>  <Ligand HET ID in PDB>


>  <PDB ID(s) for Ligand-Target Complex>


>  <PubChem CID>


>  <PubChem SID>


>  <ChEMBL ID of Ligand>


>  <DrugBank ID of Ligand>


>  <ZINC ID of Ligand>


>  <PDB ID(s) of Target Chain>
1Q2W,1QZ8,1UJ1,1UK2,1UK3,1UK4,1UW7,1WOF,1Z1I,2A5A,2A5I,2A5K,2ACF,2AHM,2ALV,2AMD,2AMQ,2BX3,2BX4,2C3S,2D2D,2DUC,2FAV,2FE8,2FYG,2G9T,2GA6,2GDT,2GRI,2GT7,2GT8,2GTB,2GX4,2GZ7,2GZ8,2GZ9,2H2Z,2HOB,2HSX,2IDY,2JZF,2K7X,2K87,2KAF,2LIZ,2OP9,2OZK,2RNK,2V6N,2VJ1,2XYQ,2XYR,2XYV,2Z3C,2Z3D,2Z3E,2Z94,2Z9G,2Z9J,2Z9K,2Z9L,2ZU4,2ZU5,3D62,3E91,3E9S,3EA7,3EA8,3EBN,3IWM,3M3V,3MJ5,3R24,3SN8,3SNA,3SNB,3SNC,3SND,3SNE,3SZN,3TIT,3TIU,3TNS,3TNT,3V3M,3VB3,3VB4,3VB5,3VB6,3VB7,4MDS,4MM3,4OVZ,4OW0,5C8S,5C8T,5C8U,5F22,5N19,5N5O,5NFY,5TL6,5TL7,5Y3E,5Y3Q,6JYT,6LNQ,6LNY,6LO0,6NUR,6NUS,6W2A,6W79,6WCO,6XHL,6XHN,6XHO,6XMK,6XOA,7AKU,7C2K,7JOY

>  <Smiles>
CC([C@@H](C(N[C@@H](CC1CCCCC1)C(N[C@@H](C[C@H](CCN1)C1=O)C=O)=O)=O)NC(OCc1ccccc1)=O)OC(C)(C)C

$$$$
50484478
Actelion Java MolfileCreator 2.0

  0  0  0  0  0  0              0 V3000
M  V30 BEGIN CTAB
M  V30 COUNTS 42 43 0 0 0
M  V30 BEGIN ATOM
M  V30 1 O 0.0 0.0 0.0 0
M  V30 2 C -0.0118 1.5125 0.0 0
M  V30 3 N 1.2762 2.2688 0.0 0
M  V30 4 C -1.3234 2.2688 0.0 0 CFG=1
M  V30 5 C 2.5642 1.5243 0.0 0 CFG=2
M  V30 6 N -2.6351 1.5243 0.0 0
M  V30 7 C -1.3352 3.7813 0.0 0
M  V30 8 C 3.8522 2.2806 0.0 0
M  V30 9 C 2.5524 0.0354 0.0 0
M  V30 10 C -3.9467 2.2806 0.0 0
M  V30 11 C -0.0472 4.5376 0.0 0
M  V30 12 C -2.6469 4.5376 0.0 0
M  V30 13 O 3.8404 3.7931 0.0 0
M  V30 14 N 5.1402 1.5361 0.0 0
M  V30 15 C 3.8404 -0.709 0.0 0
M  V30 16 O -3.9586 3.7931 0.0 0
M  V30 17 C -5.2584 1.5361 0.0 0 CFG=1
M  V30 18 C 6.4283 2.3042 0.0 0 CFG=2
M  V30 19 C 3.8168 -2.186 0.0 0
M  V30 20 C 5.1166 0.059 0.0 0
M  V30 21 N -6.5701 2.2924 0.0 0
M  V30 22 C -5.2702 0.0472 0.0 0
M  V30 23 C 7.7163 1.5716 0.0 0
M  V30 24 C 6.4164 3.8168 0.0 0
M  V30 25 C 5.093 -2.9187 0.0 0
M  V30 26 C 6.4046 -0.6853 0.0 0
M  V30 27 C -7.8817 1.5479 0.0 0
M  V30 28 O 9.0043 2.3397 0.0 0
M  V30 29 C 7.7045 4.5848 0.0 0
M  V30 30 C 6.381 -2.1624 0.0 0
M  V30 31 O -7.8935 0.059 0.0 0
M  V30 32 C -9.1934 2.3042 0.0 0 CFG=1
M  V30 33 N 9.0634 3.994 0.0 0
M  V30 34 C 7.8463 6.0974 0.0 0
M  V30 35 N -10.505 1.5598 0.0 0
M  V30 36 C -9.2052 3.8168 0.0 0
M  V30 37 C 10.056 5.1166 0.0 0
M  V30 38 N 9.2997 6.4283 0.0 0
M  V30 39 C -11.8167 2.3278 0.0 0
M  V30 40 O -7.9172 4.573 0.0 0
M  V30 41 O -11.8285 3.8404 0.0 0
M  V30 42 C -13.1283 1.5952 0.0 0
M  V30 END ATOM
M  V30 BEGIN BOND
M  V30 1 2 1 2
M  V30 2 1 2 3
M  V30 3 1 2 4
M  V30 4 1 5 3 CFG=3
M  V30 5 1 4 6 CFG=1
M  V30 6 1 4 7
M  V30 7 1 5 8
M  V30 8 1 5 9
M  V30 9 1 6 10
M  V30 10 1 7 11
M  V30 11 1 7 12
M  V30 12 2 8 13
M  V30 13 1 8 14
M  V30 14 1 9 15
M  V30 15 2 10 16
M  V30 16 1 10 17
M  V30 17 1 18 14 CFG=1
M  V30 18 1 15 19
M  V30 19 1 15 20
M  V30 20 1 17 21 CFG=3
M  V30 21 1 17 22
M  V30 22 1 18 23
M  V30 23 1 18 24
M  V30 24 1 19 25
M  V30 25 1 20 26
M  V30 26 1 21 27
M  V30 27 2 23 28
M  V30 28 1 24 29
M  V30 29 1 25 30
M  V30 30 2 27 31
M  V30 31 1 27 32
M  V30 32 1 29 33
M  V30 33 2 29 34
M  V30 34 1 32 35 CFG=1
M  V30 35 1 32 36
M  V30 36 2 33 37
M  V30 37 1 34 38
M  V30 38 1 35 39
M  V30 39 1 36 40
M  V30 40 2 39 41
M  V30 41 1 39 42
M  V30 42 1 26 30
M  V30 43 1 37 38
M  V30 END BOND
M  V30 BEGIN COLLECTION
M  V30 MDLV30/STERAC1 ATOMS=(5 4 5 17 18 32)
M  V30 END COLLECTION
M  V30 END CTAB
M  END
>  <Ligand InChI>
InChI=1S/C28H45N7O7/c1-16(2)24(35-25(39)17(3)31-27(41)23(14-37)32-18(4)38)28(42)34-22(10-19-8-6-5-7-9-19)26(40)33-21(13-36)11-20-12-29-15-30-20/h12-13,15-17,19,21-24,37H,5-11,14H2,1-4H3,(H,29,30)(H,31,41)(H,32,38)(H,33,40)(H,34,42)(H,35,39)/t17-,21-,22-,23-,24-/m0/s1

>  <Ligand InChI Key>
SENRSUXIIOUWCL-KELSAIANSA-N

>  <BindingDB MonomerID>
50484478

>  <Target Name Assigned by Curator or DataSource>
3C-like proteinase (3CL-PRO)

>  <Target Source Organism According to Curator or DataSource>
Human SARS coronavirus

>  <IC50 (nM)>
65

>  <PMID>
26878082

>  <Ligand HET ID in PDB>


>  <PDB ID(s) for Ligand-Target Complex>


>  <PubChem CID>
54592394

>  <PubChem SID>
433951743

>  <ChEMBL ID of Ligand>


>  <DrugBank ID of Ligand>


>  <ZINC ID of Ligand>


>  <PDB ID(s) of Target Chain>
1Q2W,1QZ8,1UJ1,1UK2,1UK3,1UK4,1UW7,1WOF,1Z1I,2A5A,2A5I,2A5K,2ACF,2AHM,2ALV,2AMD,2AMQ,2BX3,2BX4,2C3S,2D2D,2DUC,2FAV,2FE8,2FYG,2G9T,2GA6,2GDT,2GRI,2GT7,2GT8,2GTB,2GX4,2GZ7,2GZ8,2GZ9,2H2Z,2HOB,2HSX,2IDY,2JZF,2K7X,2K87,2KAF,2LIZ,2OP9,2OZK,2RNK,2V6N,2VJ1,2XYQ,2XYR,2XYV,2Z3C,2Z3D,2Z3E,2Z94,2Z9G,2Z9J,2Z9K,2Z9L,2ZU4,2ZU5,3D62,3E91,3E9S,3EA7,3EA8,3EBN,3IWM,3M3V,3MJ5,3R24,3SN8,3SNA,3SNB,3SNC,3SND,3SNE,3SZN,3TIT,3TIU,3TNS,3TNT,3V3M,3VB3,3VB4,3VB5,3VB6,3VB7,4MDS,4MM3,4OVZ,4OW0,5C8S,5C8T,5C8U,5F22,5N19,5N5O,5NFY,5TL6,5TL7,5Y3E,5Y3Q,6JYT,6LNQ,6LNY,6LO0,6NUR,6NUS,6W2A,6W79,6WCO,6XHL,6XHN,6XHO,6XMK,6XOA,7AKU,7C2K,7JOY

>  <Smiles>
CC(C)[C@@H](C(N[C@@H](CC1CCCCC1)C(N[C@@H](Cc1c[nH]cn1)C=O)=O)=O)NC([C@H](C)NC([C@H](CO)NC(C)=O)=O)=O

$$$$
50484482
Actelion Java MolfileCreator 2.0

  0  0  0  0  0  0              0 V3000
M  V30 BEGIN CTAB
M  V30 COUNTS 39 39 0 0 0
M  V30 BEGIN ATOM
M  V30 1 O 0.0 0.0 0.0 0
M  V30 2 C -0.0117 1.5103 0.0 0
M  V30 3 N 1.2743 2.2654 0.0 0
M  V30 4 C -1.3215 2.2654 0.0 0 CFG=1
M  V30 5 C 2.5604 1.5221 0.0 0 CFG=2
M  V30 6 N -2.6312 1.5221 0.0 0
M  V30 7 C -1.3333 3.7758 0.0 0
M  V30 8 C 3.8466 2.2772 0.0 0
M  V30 9 C 2.5486 0.0353 0.0 0
M  V30 10 C -3.941 2.2772 0.0 0
M  V30 11 C -0.0471 4.5309 0.0 0
M  V30 12 C -2.643 4.5309 0.0 0
M  V30 13 O 3.8348 3.7876 0.0 0
M  V30 14 N 5.1327 1.5339 0.0 0
M  V30 15 C 3.8348 -0.7079 0.0 0
M  V30 16 O -3.9528 3.7876 0.0 0
M  V30 17 C -5.2507 1.5339 0.0 0 CFG=1
M  V30 18 C 6.4189 2.3008 0.0 0 CFG=2
M  V30 19 C 3.823 -2.1946 0.0 0
M  V30 20 C 5.1209 0.0471 0.0 0
M  V30 21 N -6.5604 2.289 0.0 0
M  V30 22 C -5.2625 0.0471 0.0 0
M  V30 23 C 7.705 1.5693 0.0 0
M  V30 24 C 6.4071 3.8112 0.0 0
M  V30 25 C -7.8702 1.5457 0.0 0
M  V30 26 O 8.9911 2.3362 0.0 0
M  V30 27 C 7.6932 4.5781 0.0 0
M  V30 28 O -7.882 0.0589 0.0 0
M  V30 29 C -9.1799 2.3008 0.0 0 CFG=1
M  V30 30 N 9.0501 3.9882 0.0 0
M  V30 31 C 7.8348 6.0885 0.0 0
M  V30 32 N -10.4897 1.5575 0.0 0
M  V30 33 C -9.1917 3.8112 0.0 0
M  V30 34 C 10.0413 5.1091 0.0 0
M  V30 35 N 9.2861 6.4189 0.0 0
M  V30 36 C -11.7994 2.3244 0.0 0
M  V30 37 O -7.9056 4.5663 0.0 0
M  V30 38 O -11.8112 3.8348 0.0 0
M  V30 39 C -13.1091 1.5929 0.0 0
M  V30 END ATOM
M  V30 BEGIN BOND
M  V30 1 2 1 2
M  V30 2 1 2 3
M  V30 3 1 2 4
M  V30 4 1 5 3 CFG=3
M  V30 5 1 4 6 CFG=1
M  V30 6 1 4 7
M  V30 7 1 5 8
M  V30 8 1 5 9
M  V30 9 1 6 10
M  V30 10 1 7 11
M  V30 11 1 7 12
M  V30 12 2 8 13
M  V30 13 1 8 14
M  V30 14 1 9 15
M  V30 15 2 10 16
M  V30 16 1 10 17
M  V30 17 1 18 14 CFG=1
M  V30 18 1 15 19
M  V30 19 1 15 20
M  V30 20 1 17 21 CFG=3
M  V30 21 1 17 22
M  V30 22 1 18 23
M  V30 23 1 18 24
M  V30 24 1 21 25
M  V30 25 2 23 26
M  V30 26 1 24 27
M  V30 27 2 25 28
M  V30 28 1 25 29
M  V30 29 1 27 30
M  V30 30 2 27 31
M  V30 31 1 29 32 CFG=1
M  V30 32 1 29 33
M  V30 33 2 30 34
M  V30 34 1 31 35
M  V30 35 1 32 36
M  V30 36 1 33 37
M  V30 37 2 36 38
M  V30 38 1 36 39
M  V30 39 1 34 35
M  V30 END BOND
M  V30 BEGIN COLLECTION
M  V30 MDLV30/STERAC1 ATOMS=(5 4 5 17 18 29)
M  V30 END COLLECTION
M  V30 END CTAB
M  END
>  <Ligand InChI>
InChI=1S/C25H41N7O7/c1-13(2)7-19(23(37)30-18(10-33)8-17-9-26-12-27-17)31-25(39)21(14(3)4)32-22(36)15(5)28-24(38)20(11-34)29-16(6)35/h9-10,12-15,18-21,34H,7-8,11H2,1-6H3,(H,26,27)(H,28,38)(H,29,35)(H,30,37)(H,31,39)(H,32,36)/t15-,18-,19-,20-,21-/m0/s1

>  <Ligand InChI Key>
AEYIBAPLFDNVGD-JMMIECQRSA-N

>  <BindingDB MonomerID>
50484482

>  <Target Name Assigned by Curator or DataSource>
3C-like proteinase (3CL-PRO)

>  <Target Source Organism According to Curator or DataSource>
Human SARS coronavirus

>  <IC50 (nM)>
98

>  <PMID>
26878082

>  <Ligand HET ID in PDB>


>  <PDB ID(s) for Ligand-Target Complex>


>  <PubChem CID>
54592395

>  <PubChem SID>
433951747

>  <ChEMBL ID of Ligand>


>  <DrugBank ID of Ligand>


>  <ZINC ID of Ligand>


>  <PDB ID(s) of Target Chain>
1Q2W,1QZ8,1UJ1,1UK2,1UK3,1UK4,1UW7,1WOF,1Z1I,2A5A,2A5I,2A5K,2ACF,2AHM,2ALV,2AMD,2AMQ,2BX3,2BX4,2C3S,2D2D,2DUC,2FAV,2FE8,2FYG,2G9T,2GA6,2GDT,2GRI,2GT7,2GT8,2GTB,2GX4,2GZ7,2GZ8,2GZ9,2H2Z,2HOB,2HSX,2IDY,2JZF,2K7X,2K87,2KAF,2LIZ,2OP9,2OZK,2RNK,2V6N,2VJ1,2XYQ,2XYR,2XYV,2Z3C,2Z3D,2Z3E,2Z94,2Z9G,2Z9J,2Z9K,2Z9L,2ZU4,2ZU5,3D62,3E91,3E9S,3EA7,3EA8,3EBN,3IWM,3M3V,3MJ5,3R24,3SN8,3SNA,3SNB,3SNC,3SND,3SNE,3SZN,3TIT,3TIU,3TNS,3TNT,3V3M,3VB3,3VB4,3VB5,3VB6,3VB7,4MDS,4MM3,4OVZ,4OW0,5C8S,5C8T,5C8U,5F22,5N19,5N5O,5NFY,5TL6,5TL7,5Y3E,5Y3Q,6JYT,6LNQ,6LNY,6LO0,6NUR,6NUS,6W2A,6W79,6WCO,6XHL,6XHN,6XHO,6XMK,6XOA,7AKU,7C2K,7JOY

>  <Smiles>
CC(C)C[C@@H](C(N[C@@H](Cc1c[nH]cn1)C=O)=O)NC([C@H](C(C)C)NC([C@H](C)NC([C@H](CO)NC(C)=O)=O)=O)=O

$$$$
429138
Actelion Java MolfileCreator 2.0

  0  0  0  0  0  0              0 V3000
M  V30 BEGIN CTAB
M  V30 COUNTS 31 31 0 0 0
M  V30 BEGIN ATOM
M  V30 1 F 0.0 0.0 0.0 0
M  V30 2 C -1.3067 -0.7416 0.0 0
M  V30 3 C -2.6135 0.0235 0.0 0
M  V30 4 O -3.9202 -0.7181 0.0 0
M  V30 5 C -2.6253 1.5304 0.0 0 CFG=1
M  V30 6 N -3.932 2.2956 0.0 0
M  V30 7 C -1.342 2.2956 0.0 0
M  V30 8 C -5.2388 1.5539 0.0 0
M  V30 9 C -0.0588 1.5539 0.0 0
M  V30 10 O -5.2506 0.0706 0.0 0
M  V30 11 C -6.5455 2.3192 0.0 0 CFG=1
M  V30 12 C 1.2243 2.3192 0.0 0
M  V30 13 N -7.8523 1.5775 0.0 0
M  V30 14 C -6.5573 3.8261 0.0 0
M  V30 15 O 1.2125 3.8261 0.0 0
M  V30 16 N 2.5075 1.5775 0.0 0
M  V30 17 C -9.1591 2.3427 0.0 0
M  V30 18 C -5.2741 4.5795 0.0 0
M  V30 19 C 3.7907 2.3427 0.0 0
M  V30 20 C 2.4958 0.0941 0.0 0
M  V30 21 O -9.1708 3.8496 0.0 0
M  V30 22 O -10.4658 1.601 0.0 0
M  V30 23 C -3.9909 3.8496 0.0 0
M  V30 24 C -5.2859 6.0864 0.0 0
M  V30 25 C -11.7726 2.3663 0.0 0
M  V30 26 C -13.0794 1.6246 0.0 0
M  V30 27 C -13.0911 0.1412 0.0 0
M  V30 28 C -14.3861 2.3898 0.0 0
M  V30 29 C -14.3979 -0.6004 0.0 0
M  V30 30 C -15.6929 1.6481 0.0 0
M  V30 31 C -15.7047 0.1648 0.0 0
M  V30 END ATOM
M  V30 BEGIN BOND
M  V30 1 1 1 2
M  V30 2 1 2 3
M  V30 3 2 3 4
M  V30 4 1 3 5
M  V30 5 1 5 6 CFG=1
M  V30 6 1 5 7
M  V30 7 1 6 8
M  V30 8 1 7 9
M  V30 9 2 8 10
M  V30 10 1 8 11
M  V30 11 1 9 12
M  V30 12 1 11 13 CFG=1
M  V30 13 1 11 14
M  V30 14 2 12 15
M  V30 15 1 12 16
M  V30 16 1 13 17
M  V30 17 1 14 18
M  V30 18 1 16 19
M  V30 19 1 16 20
M  V30 20 2 17 21
M  V30 21 1 17 22
M  V30 22 1 18 23
M  V30 23 1 18 24
M  V30 24 1 22 25
M  V30 25 1 25 26
M  V30 26 2 26 27
M  V30 27 1 26 28
M  V30 28 1 27 29
M  V30 29 2 28 30
M  V30 30 2 29 31
M  V30 31 1 30 31
M  V30 END BOND
M  V30 BEGIN COLLECTION
M  V30 MDLV30/STEABS ATOMS=(2 5 11)
M  V30 END COLLECTION
M  V30 END CTAB
M  END
>  <Ligand InChI>
InChI=1S/C22H32FN3O5/c1-15(2)12-18(25-22(30)31-14-16-8-6-5-7-9-16)21(29)24-17(19(27)13-23)10-11-20(28)26(3)4/h5-9,15,17-18H,10-14H2,1-4H3,(H,24,29)(H,25,30)/t17-,18-/m0/s1

>  <Ligand InChI Key>
UBPKJZUVHMCXAZ-ROUUACIJSA-N

>  <BindingDB MonomerID>
429138

>  <Target Name Assigned by Curator or DataSource>
3C-like proteinase (3CL-PRO)

>  <Target Source Organism According to Curator or DataSource>
Human SARS coronavirus

>  <IC50 (nM)>
3600

>  <PMID>
26878082

>  <Ligand HET ID in PDB>


>  <PDB ID(s) for Ligand-Target Complex>


>  <PubChem CID>


>  <PubChem SID>


>  <ChEMBL ID of Ligand>


>  <DrugBank ID of Ligand>


>  <ZINC ID of Ligand>


>  <PDB ID(s) of Target Chain>
1Q2W,1QZ8,1UJ1,1UK2,1UK3,1UK4,1UW7,1WOF,1Z1I,2A5A,2A5I,2A5K,2ACF,2AHM,2ALV,2AMD,2AMQ,2BX3,2BX4,2C3S,2D2D,2DUC,2FAV,2FE8,2FYG,2G9T,2GA6,2GDT,2GRI,2GT7,2GT8,2GTB,2GX4,2GZ7,2GZ8,2GZ9,2H2Z,2HOB,2HSX,2IDY,2JZF,2K7X,2K87,2KAF,2LIZ,2OP9,2OZK,2RNK,2V6N,2VJ1,2XYQ,2XYR,2XYV,2Z3C,2Z3D,2Z3E,2Z94,2Z9G,2Z9J,2Z9K,2Z9L,2ZU4,2ZU5,3D62,3E91,3E9S,3EA7,3EA8,3EBN,3IWM,3M3V,3MJ5,3R24,3SN8,3SNA,3SNB,3SNC,3SND,3SNE,3SZN,3TIT,3TIU,3TNS,3TNT,3V3M,3VB3,3VB4,3VB5,3VB6,3VB7,4MDS,4MM3,4OVZ,4OW0,5C8S,5C8T,5C8U,5F22,5N19,5N5O,5NFY,5TL6,5TL7,5Y3E,5Y3Q,6JYT,6LNQ,6LNY,6LO0,6NUR,6NUS,6W2A,6W79,6WCO,6XHL,6XHN,6XHO,6XMK,6XOA,7AKU,7C2K,7JOY

>  <Smiles>
CC(C)C[C@@H](C(N[C@@H](CCC(N(C)C)=O)C(CF)=O)=O)NC(OCc1ccccc1)=O

$$$$
429259
Actelion Java MolfileCreator 2.0

  0  0  0  0  0  0              0 V3000
M  V30 BEGIN CTAB
M  V30 COUNTS 24 27 0 0 0
M  V30 BEGIN ATOM
M  V30 1 S 0.0 0.0 0.0 0
M  V30 2 C 1.4196 -0.4495 0.0 0
M  V30 3 C -0.8991 -1.2066 0.0 0
M  V30 4 C 1.4078 -1.9401 0.0 0
M  V30 5 C 2.7091 0.3194 0.0 0
M  V30 6 C -0.0236 -2.4133 0.0 0
M  V30 7 C -2.4133 -1.1948 0.0 0
M  V30 8 C 2.6973 -2.6854 0.0 0
M  V30 9 C 3.9986 -0.4258 0.0 0
M  V30 10 C -3.1823 -2.4843 0.0 0 CFG=2
M  V30 11 C 3.9868 -1.9165 0.0 0
M  V30 12 C -2.579 -3.8448 0.0 0
M  V30 13 C -4.6847 -2.6263 0.0 0
M  V30 14 O -1.1238 -4.1406 0.0 0
M  V30 15 C -3.7028 -4.8385 0.0 0
M  V30 16 C -5.8086 -1.6089 0.0 0
M  V30 17 C -5.0042 -4.0814 0.0 0
M  V30 18 O -3.5609 -6.3173 0.0 0
M  V30 19 N -5.5129 -0.1301 0.0 0 CHG=1
M  V30 20 C -7.2519 -2.0584 0.0 0
M  V30 21 C -6.4475 -4.531 0.0 0
M  V30 22 O -6.6367 0.8872 0.0 0
M  V30 23 O -4.0932 0.343 0.0 0 CHG=-1
M  V30 24 C -7.5713 -3.5135 0.0 0
M  V30 END ATOM
M  V30 BEGIN BOND
M  V30 1 1 1 2
M  V30 2 1 1 3
M  V30 3 2 2 4
M  V30 4 1 2 5
M  V30 5 2 3 6
M  V30 6 1 3 7
M  V30 7 1 4 8
M  V30 8 2 5 9
M  V30 9 1 10 7 CFG=3
M  V30 10 2 8 11
M  V30 11 1 10 12
M  V30 12 1 10 13
M  V30 13 2 12 14
M  V30 14 1 12 15
M  V30 15 2 13 16
M  V30 16 1 13 17
M  V30 17 2 15 18
M  V30 18 1 16 19
M  V30 19 1 16 20
M  V30 20 2 17 21
M  V30 21 2 19 22
M  V30 22 1 19 23
M  V30 23 2 20 24
M  V30 24 1 4 6
M  V30 25 1 9 11
M  V30 26 1 15 17
M  V30 27 1 21 24
M  V30 END BOND
M  V30 BEGIN COLLECTION
M  V30 MDLV30/STERAC1 ATOMS=(1 10)
M  V30 END COLLECTION
M  V30 END CTAB
M  END
>  <Ligand InChI>
InChI=1/C18H11NO4S/c20-17-12-5-3-6-14(19(22)23)16(12)13(18(17)21)9-11-8-10-4-1-2-7-15(10)24-11/h1-8,13H,9H2

>  <Ligand InChI Key>
HRGTVSWPWYVMGR-UHFFFAOYNA-N

>  <BindingDB MonomerID>
429259

>  <Target Name Assigned by Curator or DataSource>
3C-like proteinase (3CL-PRO)

>  <Target Source Organism According to Curator or DataSource>
Human SARS coronavirus

>  <IC50 (nM)>
2000

>  <PMID>
26878082

>  <Ligand HET ID in PDB>


>  <PDB ID(s) for Ligand-Target Complex>


>  <PubChem CID>


>  <PubChem SID>


>  <ChEMBL ID of Ligand>


>  <DrugBank ID of Ligand>


>  <ZINC ID of Ligand>


>  <PDB ID(s) of Target Chain>
1Q2W,1QZ8,1UJ1,1UK2,1UK3,1UK4,1UW7,1WOF,1Z1I,2A5A,2A5I,2A5K,2ACF,2AHM,2ALV,2AMD,2AMQ,2BX3,2BX4,2C3S,2D2D,2DUC,2FAV,2FE8,2FYG,2G9T,2GA6,2GDT,2GRI,2GT7,2GT8,2GTB,2GX4,2GZ7,2GZ8,2GZ9,2H2Z,2HOB,2HSX,2IDY,2JZF,2K7X,2K87,2KAF,2LIZ,2OP9,2OZK,2RNK,2V6N,2VJ1,2XYQ,2XYR,2XYV,2Z3C,2Z3D,2Z3E,2Z94,2Z9G,2Z9J,2Z9K,2Z9L,2ZU4,2ZU5,3D62,3E91,3E9S,3EA7,3EA8,3EBN,3IWM,3M3V,3MJ5,3R24,3SN8,3SNA,3SNB,3SNC,3SND,3SNE,3SZN,3TIT,3TIU,3TNS,3TNT,3V3M,3VB3,3VB4,3VB5,3VB6,3VB7,4MDS,4MM3,4OVZ,4OW0,5C8S,5C8T,5C8U,5F22,5N19,5N5O,5NFY,5TL6,5TL7,5Y3E,5Y3Q,6JYT,6LNQ,6LNY,6LO0,6NUR,6NUS,6W2A,6W79,6WCO,6XHL,6XHN,6XHO,6XMK,6XOA,7AKU,7C2K,7JOY

>  <Smiles>
[O-][N+](c1c(C(Cc2cc(cccc3)c3s2)C(C2=O)=O)c2ccc1)=O

$$$$
429260
Actelion Java MolfileCreator 2.0

  0  0  0  0  0  0              0 V3000
M  V30 BEGIN CTAB
M  V30 COUNTS 22 25 0 0 0
M  V30 BEGIN ATOM
M  V30 1 Br 0.0 0.0 0.0 0
M  V30 2 C -1.1214 -0.9916 0.0 0
M  V30 3 C -2.5616 -0.5194 0.0 0
M  V30 4 C -0.8263 -2.4436 0.0 0
M  V30 5 C -3.6831 -1.511 0.0 0
M  V30 6 C -3.1873 0.8617 0.0 0 CFG=1
M  V30 7 C -1.9478 -3.4352 0.0 0
M  V30 8 C -4.9935 -0.7437 0.0 0
M  V30 9 C -3.388 -2.963 0.0 0
M  V30 10 C -4.6865 0.7201 0.0 0
M  V30 11 C -2.4436 2.1721 0.0 0
M  V30 12 O -6.3746 -1.3457 0.0 0
M  V30 13 O -5.7018 1.8415 0.0 0
M  V30 14 C -0.9562 2.1839 0.0 0
M  V30 15 S -0.0826 3.4116 0.0 0
M  V30 16 C -0.0826 0.9798 0.0 0
M  V30 17 C 1.3339 2.963 0.0 0
M  V30 18 C 1.3339 1.452 0.0 0
M  V30 19 C 2.6207 3.7303 0.0 0
M  V30 20 C 2.6207 0.7082 0.0 0
M  V30 21 C 3.9074 2.9866 0.0 0
M  V30 22 C 3.9074 1.4756 0.0 0
M  V30 END ATOM
M  V30 BEGIN BOND
M  V30 1 1 1 2
M  V30 2 2 2 3
M  V30 3 1 2 4
M  V30 4 1 3 5
M  V30 5 1 3 6
M  V30 6 2 4 7
M  V30 7 1 5 8
M  V30 8 2 5 9
M  V30 9 1 6 10
M  V30 10 1 6 11 CFG=1
M  V30 11 2 8 12
M  V30 12 2 10 13
M  V30 13 1 11 14
M  V30 14 1 14 15
M  V30 15 2 14 16
M  V30 16 1 15 17
M  V30 17 1 16 18
M  V30 18 1 17 19
M  V30 19 1 18 20
M  V30 20 2 19 21
M  V30 21 2 20 22
M  V30 22 1 7 9
M  V30 23 1 8 10
M  V30 24 2 17 18
M  V30 25 1 21 22
M  V30 END BOND
M  V30 BEGIN COLLECTION
M  V30 MDLV30/STERAC1 ATOMS=(1 6)
M  V30 END COLLECTION
M  V30 END CTAB
M  END
>  <Ligand InChI>
InChI=1/C18H11BrO2S/c19-14-6-3-5-12-16(14)13(18(21)17(12)20)9-11-8-10-4-1-2-7-15(10)22-11/h1-8,13H,9H2

>  <Ligand InChI Key>
XDCJGGHIPOQMLF-UHFFFAOYNA-N

>  <BindingDB MonomerID>
429260

>  <Target Name Assigned by Curator or DataSource>
3C-like proteinase (3CL-PRO)

>  <Target Source Organism According to Curator or DataSource>
Human SARS coronavirus

>  <IC50 (nM)>
980

>  <PMID>
26878082

>  <Ligand HET ID in PDB>


>  <PDB ID(s) for Ligand-Target Complex>


>  <PubChem CID>


>  <PubChem SID>


>  <ChEMBL ID of Ligand>


>  <DrugBank ID of Ligand>


>  <ZINC ID of Ligand>


>  <PDB ID(s) of Target Chain>
1Q2W,1QZ8,1UJ1,1UK2,1UK3,1UK4,1UW7,1WOF,1Z1I,2A5A,2A5I,2A5K,2ACF,2AHM,2ALV,2AMD,2AMQ,2BX3,2BX4,2C3S,2D2D,2DUC,2FAV,2FE8,2FYG,2G9T,2GA6,2GDT,2GRI,2GT7,2GT8,2GTB,2GX4,2GZ7,2GZ8,2GZ9,2H2Z,2HOB,2HSX,2IDY,2JZF,2K7X,2K87,2KAF,2LIZ,2OP9,2OZK,2RNK,2V6N,2VJ1,2XYQ,2XYR,2XYV,2Z3C,2Z3D,2Z3E,2Z94,2Z9G,2Z9J,2Z9K,2Z9L,2ZU4,2ZU5,3D62,3E91,3E9S,3EA7,3EA8,3EBN,3IWM,3M3V,3MJ5,3R24,3SN8,3SNA,3SNB,3SNC,3SND,3SNE,3SZN,3TIT,3TIU,3TNS,3TNT,3V3M,3VB3,3VB4,3VB5,3VB6,3VB7,4MDS,4MM3,4OVZ,4OW0,5C8S,5C8T,5C8U,5F22,5N19,5N5O,5NFY,5TL6,5TL7,5Y3E,5Y3Q,6JYT,6LNQ,6LNY,6LO0,6NUR,6NUS,6W2A,6W79,6WCO,6XHL,6XHN,6XHO,6XMK,6XOA,7AKU,7C2K,7JOY

>  <Smiles>
O=C(C(Cc1cc(cccc2)c2s1)c(c1ccc2)c2Br)C1=O

$$$$
429262
Actelion Java MolfileCreator 2.0

  0  0  0  0  0  0              0 V3000
M  V30 BEGIN CTAB
M  V30 COUNTS 22 25 0 0 0
M  V30 BEGIN ATOM
M  V30 1 I 0.0 0.0 0.0 0
M  V30 2 C -0.3181 1.4731 0.0 0
M  V30 3 C -1.7559 1.9445 0.0 0
M  V30 4 C 0.7778 2.4866 0.0 0
M  V30 5 C -2.0741 3.4176 0.0 0
M  V30 6 C 0.4596 3.9597 0.0 0
M  V30 7 C -3.3822 4.1836 0.0 0
M  V30 8 C -0.9781 4.4311 0.0 0
M  V30 9 O -4.7611 3.5826 0.0 0
M  V30 10 C -3.0876 5.6567 0.0 0
M  V30 11 C -1.6027 5.8099 0.0 0 CFG=1
M  V30 12 O -4.1011 6.7763 0.0 0
M  V30 13 C -0.8602 7.118 0.0 0
M  V30 14 C 0.6246 7.1298 0.0 0
M  V30 15 S 1.4966 8.3555 0.0 0
M  V30 16 C 1.4966 5.9278 0.0 0
M  V30 17 C 2.9108 7.9076 0.0 0
M  V30 18 C 2.9108 6.3992 0.0 0
M  V30 19 C 4.1954 8.6737 0.0 0
M  V30 20 C 4.1954 5.6567 0.0 0
M  V30 21 C 5.4799 7.9312 0.0 0
M  V30 22 C 5.4799 6.4227 0.0 0
M  V30 END ATOM
M  V30 BEGIN BOND
M  V30 1 1 1 2
M  V30 2 2 2 3
M  V30 3 1 2 4
M  V30 4 1 3 5
M  V30 5 2 4 6
M  V30 6 1 5 7
M  V30 7 2 5 8
M  V30 8 2 7 9
M  V30 9 1 7 10
M  V30 10 1 8 11
M  V30 11 2 10 12
M  V30 12 1 11 13 CFG=1
M  V30 13 1 13 14
M  V30 14 1 14 15
M  V30 15 2 14 16
M  V30 16 1 15 17
M  V30 17 1 16 18
M  V30 18 1 17 19
M  V30 19 1 18 20
M  V30 20 2 19 21
M  V30 21 2 20 22
M  V30 22 1 6 8
M  V30 23 1 10 11
M  V30 24 2 17 18
M  V30 25 1 21 22
M  V30 END BOND
M  V30 BEGIN COLLECTION
M  V30 MDLV30/STERAC1 ATOMS=(1 11)
M  V30 END COLLECTION
M  V30 END CTAB
M  END
>  <Ligand InChI>
InChI=1/C18H11IO2S/c19-11-5-6-13-14(8-11)17(20)18(21)15(13)9-12-7-10-3-1-2-4-16(10)22-12/h1-8,15H,9H2

>  <Ligand InChI Key>
CWBDSMSNJTZRSA-UHFFFAOYNA-N

>  <BindingDB MonomerID>
429262

>  <Target Name Assigned by Curator or DataSource>
3C-like proteinase (3CL-PRO)

>  <Target Source Organism According to Curator or DataSource>
Human SARS coronavirus

>  <IC50 (nM)>
950

>  <PMID>
26878082

>  <Ligand HET ID in PDB>


>  <PDB ID(s) for Ligand-Target Complex>


>  <PubChem CID>


>  <PubChem SID>


>  <ChEMBL ID of Ligand>


>  <DrugBank ID of Ligand>


>  <ZINC ID of Ligand>


>  <PDB ID(s) of Target Chain>
1Q2W,1QZ8,1UJ1,1UK2,1UK3,1UK4,1UW7,1WOF,1Z1I,2A5A,2A5I,2A5K,2ACF,2AHM,2ALV,2AMD,2AMQ,2BX3,2BX4,2C3S,2D2D,2DUC,2FAV,2FE8,2FYG,2G9T,2GA6,2GDT,2GRI,2GT7,2GT8,2GTB,2GX4,2GZ7,2GZ8,2GZ9,2H2Z,2HOB,2HSX,2IDY,2JZF,2K7X,2K87,2KAF,2LIZ,2OP9,2OZK,2RNK,2V6N,2VJ1,2XYQ,2XYR,2XYV,2Z3C,2Z3D,2Z3E,2Z94,2Z9G,2Z9J,2Z9K,2Z9L,2ZU4,2ZU5,3D62,3E91,3E9S,3EA7,3EA8,3EBN,3IWM,3M3V,3MJ5,3R24,3SN8,3SNA,3SNB,3SNC,3SND,3SNE,3SZN,3TIT,3TIU,3TNS,3TNT,3V3M,3VB3,3VB4,3VB5,3VB6,3VB7,4MDS,4MM3,4OVZ,4OW0,5C8S,5C8T,5C8U,5F22,5N19,5N5O,5NFY,5TL6,5TL7,5Y3E,5Y3Q,6JYT,6LNQ,6LNY,6LO0,6NUR,6NUS,6W2A,6W79,6WCO,6XHL,6XHN,6XHO,6XMK,6XOA,7AKU,7C2K,7JOY

>  <Smiles>
O=C(C(Cc1cc(cccc2)c2s1)c(cc1)c2cc1I)C2=O

$$$$
429263
Actelion Java MolfileCreator 2.0

  0  0  0  0  0  0              0 V3000
M  V30 BEGIN CTAB
M  V30 COUNTS 28 31 0 0 0
M  V30 BEGIN ATOM
M  V30 1 S 0.0 0.0 0.0 0
M  V30 2 O 0.7439 1.3107 0.0 0
M  V30 3 O -0.7557 -1.2871 0.0 0
M  V30 4 N 1.2871 -0.7321 0.0 0
M  V30 5 C -1.3107 0.7557 0.0 0
M  V30 6 C 1.2753 -2.22 0.0 0
M  V30 7 C 2.5742 0.0236 0.0 0
M  V30 8 C -2.6214 0.0236 0.0 0
M  V30 9 C -1.3225 2.2672 0.0 0
M  V30 10 C 2.5624 -2.9521 0.0 0
M  V30 11 C 3.8613 -0.7085 0.0 0
M  V30 12 C -3.9322 0.7793 0.0 0
M  V30 13 C -2.6333 3.0229 0.0 0
M  V30 14 C 3.8495 -2.1963 0.0 0
M  V30 15 C -5.3728 0.3306 0.0 0
M  V30 16 C -3.944 2.2908 0.0 0
M  V30 17 C 5.1367 -2.9285 0.0 0
M  V30 18 O -5.8452 -1.0863 0.0 0
M  V30 19 C -6.2703 1.5587 0.0 0
M  V30 20 C -5.3846 2.7631 0.0 0 CFG=1
M  V30 21 O -7.7818 1.5705 0.0 0
M  V30 22 C -5.857 4.2038 0.0 0
M  V30 23 C -4.8651 5.3256 0.0 0
M  V30 24 C -5.3374 6.7662 0.0 0
M  V30 25 C -3.4126 5.0304 0.0 0
M  V30 26 C -4.3455 7.8881 0.0 0
M  V30 27 C -2.4207 6.1522 0.0 0
M  V30 28 C -2.893 7.5928 0.0 0
M  V30 END ATOM
M  V30 BEGIN BOND
M  V30 1 2 1 2
M  V30 2 2 1 3
M  V30 3 1 1 4
M  V30 4 1 1 5
M  V30 5 1 4 6
M  V30 6 1 4 7
M  V30 7 2 5 8
M  V30 8 1 5 9
M  V30 9 1 6 10
M  V30 10 1 7 11
M  V30 11 1 8 12
M  V30 12 2 9 13
M  V30 13 1 10 14
M  V30 14 1 12 15
M  V30 15 2 12 16
M  V30 16 1 14 17
M  V30 17 2 15 18
M  V30 18 1 15 19
M  V30 19 1 16 20
M  V30 20 2 19 21
M  V30 21 1 20 22 CFG=1
M  V30 22 1 22 23
M  V30 23 2 23 24
M  V30 24 1 23 25
M  V30 25 1 24 26
M  V30 26 2 25 27
M  V30 27 2 26 28
M  V30 28 1 11 14
M  V30 29 1 13 16
M  V30 30 1 19 20
M  V30 31 1 27 28
M  V30 END BOND
M  V30 BEGIN COLLECTION
M  V30 MDLV30/STERAC1 ATOMS=(1 20)
M  V30 END COLLECTION
M  V30 END CTAB
M  END
>  <Ligand InChI>
InChI=1/C22H23NO4S/c1-15-9-11-23(12-10-15)28(26,27)17-7-8-18-19(13-16-5-3-2-4-6-16)21(24)22(25)20(18)14-17/h2-8,14-15,19H,9-13H2,1H3

>  <Ligand InChI Key>
XMQJYRFXKWGGMV-UHFFFAOYNA-N

>  <BindingDB MonomerID>
429263

>  <Target Name Assigned by Curator or DataSource>
3C-like proteinase (3CL-PRO)

>  <Target Source Organism According to Curator or DataSource>
Human SARS coronavirus

>  <IC50 (nM)>
1040

>  <PMID>
26878082

>  <Ligand HET ID in PDB>


>  <PDB ID(s) for Ligand-Target Complex>


>  <PubChem CID>


>  <PubChem SID>


>  <ChEMBL ID of Ligand>


>  <DrugBank ID of Ligand>


>  <ZINC ID of Ligand>


>  <PDB ID(s) of Target Chain>
1Q2W,1QZ8,1UJ1,1UK2,1UK3,1UK4,1UW7,1WOF,1Z1I,2A5A,2A5I,2A5K,2ACF,2AHM,2ALV,2AMD,2AMQ,2BX3,2BX4,2C3S,2D2D,2DUC,2FAV,2FE8,2FYG,2G9T,2GA6,2GDT,2GRI,2GT7,2GT8,2GTB,2GX4,2GZ7,2GZ8,2GZ9,2H2Z,2HOB,2HSX,2IDY,2JZF,2K7X,2K87,2KAF,2LIZ,2OP9,2OZK,2RNK,2V6N,2VJ1,2XYQ,2XYR,2XYV,2Z3C,2Z3D,2Z3E,2Z94,2Z9G,2Z9J,2Z9K,2Z9L,2ZU4,2ZU5,3D62,3E91,3E9S,3EA7,3EA8,3EBN,3IWM,3M3V,3MJ5,3R24,3SN8,3SNA,3SNB,3SNC,3SND,3SNE,3SZN,3TIT,3TIU,3TNS,3TNT,3V3M,3VB3,3VB4,3VB5,3VB6,3VB7,4MDS,4MM3,4OVZ,4OW0,5C8S,5C8T,5C8U,5F22,5N19,5N5O,5NFY,5TL6,5TL7,5Y3E,5Y3Q,6JYT,6LNQ,6LNY,6LO0,6NUR,6NUS,6W2A,6W79,6WCO,6XHL,6XHN,6XHO,6XMK,6XOA,7AKU,7C2K,7JOY

>  <Smiles>
CC(CC1)CCN1S(c1cc(C(C(C2Cc3ccccc3)=O)=O)c2cc1)(=O)=O

$$$$
429276
Actelion Java MolfileCreator 2.0

  0  0  0  0  0  0              0 V3000
M  V30 BEGIN CTAB
M  V30 COUNTS 30 34 0 0 0
M  V30 BEGIN ATOM
M  V30 1 O 0.0 0.0 0.0 0
M  V30 2 C -0.764 1.3047 0.0 0
M  V30 3 C -0.0235 2.6095 0.0 0
M  V30 4 C -2.2686 1.3165 0.0 0
M  V30 5 O 1.4575 2.6212 0.0 0
M  V30 6 C -0.7875 3.9142 0.0 0
M  V30 7 C -3.0326 2.6212 0.0 0
M  V30 8 C -2.2921 3.926 0.0 0
M  V30 9 C -0.047 5.219 0.0 0
M  V30 10 C -4.5372 2.633 0.0 0 CFG=1
M  V30 11 C -3.0561 5.2307 0.0 0
M  V30 12 C -5.2895 3.9377 0.0 0
M  V30 13 C -5.2895 1.3517 0.0 0
M  V30 14 C -3.7967 1.3517 0.0 0
M  V30 15 C -4.5607 5.2425 0.0 0
M  V30 16 C -6.7941 3.9495 0.0 0 CFG=2
M  V30 17 C -6.7941 1.3635 0.0 0
M  V30 18 C -7.5464 2.6682 0.0 0 CFG=1
M  V30 19 C -7.5464 5.2542 0.0 0
M  V30 20 C -6.0653 5.2542 0.0 0
M  V30 21 C -9.051 2.68 0.0 0
M  V30 22 C -8.2987 1.387 0.0 0
M  V30 23 C -9.051 5.266 0.0 0
M  V30 24 C -9.815 3.9847 0.0 0 CFG=1
M  V30 25 C -9.815 1.3987 0.0 0
M  V30 26 C -11.3196 3.9965 0.0 0
M  V30 27 C -10.5673 5.2895 0.0 0
M  V30 28 C -11.3196 1.4105 0.0 0
M  V30 29 C -12.0719 2.7153 0.0 0
M  V30 30 C -12.0719 0.1293 0.0 0
M  V30 END ATOM
M  V30 BEGIN BOND
M  V30 1 2 1 2
M  V30 2 1 2 3
M  V30 3 1 2 4
M  V30 4 1 3 5
M  V30 5 2 3 6
M  V30 6 2 4 7
M  V30 7 1 6 8
M  V30 8 1 6 9
M  V30 9 1 7 10
M  V30 10 2 8 11
M  V30 11 1 10 12
M  V30 12 1 10 13
M  V30 13 1 10 14 CFG=1
M  V30 14 1 11 15
M  V30 15 1 12 16
M  V30 16 1 13 17
M  V30 17 1 16 18
M  V30 18 1 16 19
M  V30 19 1 16 20 CFG=1
M  V30 20 1 18 21
M  V30 21 1 18 22 CFG=3
M  V30 22 1 19 23
M  V30 23 1 21 24
M  V30 24 1 21 25
M  V30 25 1 24 26
M  V30 26 1 24 27 CFG=1
M  V30 27 1 25 28
M  V30 28 1 26 29
M  V30 29 1 28 30
M  V30 30 1 7 8
M  V30 31 2 12 15
M  V30 32 1 17 18
M  V30 33 1 23 24
M  V30 34 2 28 29
M  V30 END BOND
M  V30 BEGIN COLLECTION
M  V30 MDLV30/STEABS ATOMS=(4 10 16 18 24)
M  V30 END COLLECTION
M  V30 END CTAB
M  END
>  <Ligand InChI>
InChI=1S/C28H36O2/c1-17-9-10-25(3)11-13-27(5)22-8-7-19-18(2)24(30)21(29)16-20(19)26(22,4)12-14-28(27,6)23(25)15-17/h7-9,16,23,30H,10-15H2,1-6H3/t23?,25-,26+,27-,28+/m1/s1

>  <Ligand InChI Key>
FLMDVQMCMIGPEK-VAPXRUTMSA-N

>  <BindingDB MonomerID>
429276

>  <Target Name Assigned by Curator or DataSource>
3C-like proteinase (3CL-PRO)

>  <Target Source Organism According to Curator or DataSource>
Human SARS coronavirus

>  <IC50 (nM)>
2600

>  <PMID>
26878082

>  <Ligand HET ID in PDB>


>  <PDB ID(s) for Ligand-Target Complex>


>  <PubChem CID>


>  <PubChem SID>


>  <ChEMBL ID of Ligand>


>  <DrugBank ID of Ligand>


>  <ZINC ID of Ligand>


>  <PDB ID(s) of Target Chain>
1Q2W,1QZ8,1UJ1,1UK2,1UK3,1UK4,1UW7,1WOF,1Z1I,2A5A,2A5I,2A5K,2ACF,2AHM,2ALV,2AMD,2AMQ,2BX3,2BX4,2C3S,2D2D,2DUC,2FAV,2FE8,2FYG,2G9T,2GA6,2GDT,2GRI,2GT7,2GT8,2GTB,2GX4,2GZ7,2GZ8,2GZ9,2H2Z,2HOB,2HSX,2IDY,2JZF,2K7X,2K87,2KAF,2LIZ,2OP9,2OZK,2RNK,2V6N,2VJ1,2XYQ,2XYR,2XYV,2Z3C,2Z3D,2Z3E,2Z94,2Z9G,2Z9J,2Z9K,2Z9L,2ZU4,2ZU5,3D62,3E91,3E9S,3EA7,3EA8,3EBN,3IWM,3M3V,3MJ5,3R24,3SN8,3SNA,3SNB,3SNC,3SND,3SNE,3SZN,3TIT,3TIU,3TNS,3TNT,3V3M,3VB3,3VB4,3VB5,3VB6,3VB7,4MDS,4MM3,4OVZ,4OW0,5C8S,5C8T,5C8U,5F22,5N19,5N5O,5NFY,5TL6,5TL7,5Y3E,5Y3Q,6JYT,6LNQ,6LNY,6LO0,6NUR,6NUS,6W2A,6W79,6WCO,6XHL,6XHN,6XHO,6XMK,6XOA,7AKU,7C2K,7JOY

>  <Smiles>
C[C@](CC1)(CC=C(C)C2)C2[C@](C)(CC[C@@]23C)[C@@]1(C)C3=CC=C(C(C)=C1O)C2=CC1=O

$$$$
11292
Actelion Java MolfileCreator 2.0

  0  0  0  0  0  0              0 V3000
M  V30 BEGIN CTAB
M  V30 COUNTS 28 29 0 0 0
M  V30 BEGIN ATOM
M  V30 1 Cl 0.0 0.0 0.0 0
M  V30 2 C -0.0118 -1.4928 0.0 0
M  V30 3 C 1.2795 -2.2274 0.0 0
M  V30 4 C -1.3269 -2.2274 0.0 0
M  V30 5 S 2.571 -1.4691 0.0 0
M  V30 6 C 1.2677 -3.7202 0.0 0
M  V30 7 C -1.3388 -3.7202 0.0 0
M  V30 8 O 3.3174 -0.154 0.0 0
M  V30 9 O 1.4928 -0.3909 0.0 0
M  V30 10 C 4.0638 -1.4572 0.0 0
M  V30 11 C -0.0473 -4.4548 0.0 0
M  V30 12 Cl -2.6539 -4.4548 0.0 0
M  V30 13 C 4.751 -2.7724 0.0 0
M  V30 14 C 4.8576 -0.1777 0.0 0
M  V30 15 C -0.0592 -5.9476 0.0 0
M  V30 16 N 3.9335 -4.0282 0.0 0 CHG=1
M  V30 17 C 6.2438 -2.8198 0.0 0
M  V30 18 N 4.1467 1.161 0.0 0 CHG=1
M  V30 19 C 6.3504 -0.2251 0.0 0
M  V30 20 O 2.4169 -3.9572 0.0 0
M  V30 21 O 4.6206 -5.3434 0.0 0 CHG=-1
M  V30 22 C 7.0376 -1.5402 0.0 0
M  V30 23 O 2.642 1.398 0.0 0
M  V30 24 O 5.2012 2.2392 0.0 0 CHG=-1
M  V30 25 C 8.5305 -1.5876 0.0 0
M  V30 26 F 8.5423 -0.071 0.0 0
M  V30 27 F 10.0233 -1.5757 0.0 0
M  V30 28 F 8.4949 -3.0804 0.0 0
M  V30 END ATOM
M  V30 BEGIN BOND
M  V30 1 1 1 2
M  V30 2 2 2 3
M  V30 3 1 2 4
M  V30 4 1 3 5
M  V30 5 1 3 6
M  V30 6 2 4 7
M  V30 7 2 5 8
M  V30 8 2 5 9
M  V30 9 1 5 10
M  V30 10 2 6 11
M  V30 11 1 7 12
M  V30 12 2 10 13
M  V30 13 1 10 14
M  V30 14 1 11 15
M  V30 15 1 13 16
M  V30 16 1 13 17
M  V30 17 1 14 18
M  V30 18 2 14 19
M  V30 19 2 16 20
M  V30 20 1 16 21
M  V30 21 2 17 22
M  V30 22 2 18 23
M  V30 23 1 18 24
M  V30 24 1 22 25
M  V30 25 1 25 26
M  V30 26 1 25 27
M  V30 27 1 25 28
M  V30 28 1 7 11
M  V30 29 1 19 22
M  V30 END BOND
M  V30 END CTAB
M  END
>  <Ligand InChI>
InChI=1S/C14H7Cl2F3N2O6S/c1-6-2-12(9(16)5-8(6)15)28(26,27)13-10(20(22)23)3-7(14(17,18)19)4-11(13)21(24)25/h2-5H,1H3

>  <Ligand InChI Key>
INAZPZCJNPPHGV-UHFFFAOYSA-N

>  <BindingDB MonomerID>
11292

>  <Target Name Assigned by Curator or DataSource>
3C-like proteinase (3CL-PRO)

>  <Target Source Organism According to Curator or DataSource>
Human SARS coronavirus

>  <IC50 (nM)>
300

>  <PMID>
26878082

>  <Ligand HET ID in PDB>
D3F

>  <PDB ID(s) for Ligand-Target Complex>
2GZ7

>  <PubChem CID>
2799606

>  <PubChem SID>
46511839

>  <ChEMBL ID of Ligand>


>  <DrugBank ID of Ligand>
DB07620

>  <ZINC ID of Ligand>
ZINC08626709

>  <PDB ID(s) of Target Chain>
1Q2W,1QZ8,1UJ1,1UK2,1UK3,1UK4,1UW7,1WOF,1Z1I,2A5A,2A5I,2A5K,2ACF,2AHM,2ALV,2AMD,2AMQ,2BX3,2BX4,2C3S,2D2D,2DUC,2FAV,2FE8,2FYG,2G9T,2GA6,2GDT,2GRI,2GT7,2GT8,2GTB,2GX4,2GZ7,2GZ8,2GZ9,2H2Z,2HOB,2HSX,2IDY,2JZF,2K7X,2K87,2KAF,2LIZ,2OP9,2OZK,2RNK,2V6N,2VJ1,2XYQ,2XYR,2XYV,2Z3C,2Z3D,2Z3E,2Z94,2Z9G,2Z9J,2Z9K,2Z9L,2ZU4,2ZU5,3D62,3E91,3E9S,3EA7,3EA8,3EBN,3IWM,3M3V,3MJ5,3R24,3SN8,3SNA,3SNB,3SNC,3SND,3SNE,3SZN,3TIT,3TIU,3TNS,3TNT,3V3M,3VB3,3VB4,3VB5,3VB6,3VB7,4MDS,4MM3,4OVZ,4OW0,5C8S,5C8T,5C8U,5F22,5N19,5N5O,5NFY,5TL6,5TL7,5Y3E,5Y3Q,6JYT,6LNQ,6LNY,6LO0,6NUR,6NUS,6W2A,6W79,6WCO,6XHL,6XHN,6XHO,6XMK,6XOA,7AKU,7C2K,7JOY

>  <Smiles>
Cc(c(Cl)c1)cc(S(c(c([N+]([O-])=O)cc(C(F)(F)F)c2)c2[N+]([O-])=O)(=O)=O)c1Cl

$$$$
11304
Actelion Java MolfileCreator 2.0

  0  0  0  0  0  0              0 V3000
M  V30 BEGIN CTAB
M  V30 COUNTS 25 27 0 0 0
M  V30 BEGIN ATOM
M  V30 1 S 0.0 0.0 0.0 0
M  V30 2 C 1.4166 -0.4485 0.0 0
M  V30 3 C -1.1214 -0.9916 0.0 0
M  V30 4 N 1.877 -1.8652 0.0 0
M  V30 5 N 2.6089 0.4485 0.0 0
M  V30 6 O -0.8263 -2.4436 0.0 0
M  V30 7 C -2.5617 -0.5194 0.0 0
M  V30 8 N 3.3644 -1.8416 0.0 0
M  V30 9 C 3.813 -0.4131 0.0 0
M  V30 10 O -3.7894 -1.393 0.0 0
M  V30 11 C -3.0339 0.9208 0.0 0
M  V30 12 C 5.2297 0.0708 0.0 0
M  V30 13 C -5.0172 -0.4958 0.0 0
M  V30 14 C -4.545 0.9326 0.0 0
M  V30 15 F 5.5248 1.5464 0.0 0
M  V30 16 F 6.6463 0.5548 0.0 0
M  V30 17 F 6.3394 -0.909 0.0 0
M  V30 18 C -6.4574 -0.9444 0.0 0
M  V30 19 C -7.9213 -1.3221 0.0 0
M  V30 20 C -9.3851 -1.6999 0.0 0
M  V30 21 C -10.6955 -0.9444 0.0 0
M  V30 22 C -9.3969 -3.1874 0.0 0
M  V30 23 C -12.0059 -1.6763 0.0 0
M  V30 24 C -10.7073 -3.9193 0.0 0
M  V30 25 C -12.0177 -3.1638 0.0 0
M  V30 END ATOM
M  V30 BEGIN BOND
M  V30 1 1 1 2
M  V30 2 1 1 3
M  V30 3 2 2 4
M  V30 4 1 2 5
M  V30 5 2 3 6
M  V30 6 1 3 7
M  V30 7 1 4 8
M  V30 8 1 5 9
M  V30 9 1 7 10
M  V30 10 2 7 11
M  V30 11 1 9 12
M  V30 12 1 10 13
M  V30 13 1 11 14
M  V30 14 1 12 15
M  V30 15 1 12 16
M  V30 16 1 12 17
M  V30 17 1 13 18
M  V30 18 3 18 19
M  V30 19 1 19 20
M  V30 20 2 20 21
M  V30 21 1 20 22
M  V30 22 1 21 23
M  V30 23 2 22 24
M  V30 24 2 23 25
M  V30 25 2 8 9
M  V30 26 2 13 14
M  V30 27 1 24 25
M  V30 END BOND
M  V30 END CTAB
M  END
>  <Ligand InChI>
InChI=1S/C16H8F3N3O2S/c17-16(18,19)14-20-15(22-21-14)25-13(23)12-9-8-11(24-12)7-6-10-4-2-1-3-5-10/h1-5,8-9H,(H,20,21,22)

>  <Ligand InChI Key>
VNGWUVBXUIDQTK-UHFFFAOYSA-N

>  <BindingDB MonomerID>
11304

>  <Target Name Assigned by Curator or DataSource>
3C-like proteinase (3CL-PRO)

>  <Target Source Organism According to Curator or DataSource>
Human SARS coronavirus

>  <IC50 (nM)>
3000

>  <PMID>
26878082

>  <Ligand HET ID in PDB>
F3F

>  <PDB ID(s) for Ligand-Target Complex>
2GZ8

>  <PubChem CID>
2822496

>  <PubChem SID>
46511851

>  <ChEMBL ID of Ligand>


>  <DrugBank ID of Ligand>
DB07743

>  <ZINC ID of Ligand>
ZINC01039846

>  <PDB ID(s) of Target Chain>
1Q2W,1QZ8,1UJ1,1UK2,1UK3,1UK4,1UW7,1WOF,1Z1I,2A5A,2A5I,2A5K,2ACF,2AHM,2ALV,2AMD,2AMQ,2BX3,2BX4,2C3S,2D2D,2DUC,2FAV,2FE8,2FYG,2G9T,2GA6,2GDT,2GRI,2GT7,2GT8,2GTB,2GX4,2GZ7,2GZ8,2GZ9,2H2Z,2HOB,2HSX,2IDY,2JZF,2K7X,2K87,2KAF,2LIZ,2OP9,2OZK,2RNK,2V6N,2VJ1,2XYQ,2XYR,2XYV,2Z3C,2Z3D,2Z3E,2Z94,2Z9G,2Z9J,2Z9K,2Z9L,2ZU4,2ZU5,3D62,3E91,3E9S,3EA7,3EA8,3EBN,3IWM,3M3V,3MJ5,3R24,3SN8,3SNA,3SNB,3SNC,3SND,3SNE,3SZN,3TIT,3TIU,3TNS,3TNT,3V3M,3VB3,3VB4,3VB5,3VB6,3VB7,4MDS,4MM3,4OVZ,4OW0,5C8S,5C8T,5C8U,5F22,5N19,5N5O,5NFY,5TL6,5TL7,5Y3E,5Y3Q,6JYT,6LNQ,6LNY,6LO0,6NUR,6NUS,6W2A,6W79,6WCO,6XHL,6XHN,6XHO,6XMK,6XOA,7AKU,7C2K,7JOY

>  <Smiles>
O=C(c1ccc(C#Cc2ccccc2)o1)Sc1nnc(C(F)(F)F)[nH]1

$$$$
11264
Actelion Java MolfileCreator 2.0

  0  0  0  0  0  0              0 V3000
M  V30 BEGIN CTAB
M  V30 COUNTS 30 33 0 0 0
M  V30 BEGIN ATOM
M  V30 1 Cl 0.0 0.0 0.0 0
M  V30 2 C 1.2445 0.7628 0.0 0
M  V30 3 C 1.2245 2.2482 0.0 0
M  V30 4 C 2.5092 0.0401 0.0 0
M  V30 5 C 2.4891 3.011 0.0 0
M  V30 6 C 3.7738 0.8029 0.0 0
M  V30 7 Cl 2.469 4.4965 0.0 0
M  V30 8 C 3.7537 2.2884 0.0 0
M  V30 9 N 5.0184 0.0802 0.0 0
M  V30 10 C 6.283 0.843 0.0 0
M  V30 11 O 6.263 2.3285 0.0 0
M  V30 12 C 7.5477 0.1204 0.0 0
M  V30 13 S 8.7923 0.8832 0.0 0
M  V30 14 C 10.0569 0.1605 0.0 0
M  V30 15 N 11.3216 0.9233 0.0 0
M  V30 16 N 10.0368 -1.2847 0.0 0
M  V30 17 C 12.5862 0.2007 0.0 0
M  V30 18 C 11.3015 -2.0073 0.0 0
M  V30 19 C 13.8308 0.9635 0.0 0
M  V30 20 C 12.5661 -1.2445 0.0 0
M  V30 21 N 16.3601 0.9836 0.0 0
M  V30 22 C 13.8107 2.449 0.0 0
M  V30 23 C 16.34 2.469 0.0 0
M  V30 24 S 15.0754 3.2118 0.0 0
M  V30 25 C 17.6047 3.2318 0.0 0
M  V30 26 C 18.8693 2.5092 0.0 0
M  V30 27 C 17.5846 4.7173 0.0 0
M  V30 28 C 20.1139 3.272 0.0 0
M  V30 29 C 18.8492 5.4801 0.0 0
M  V30 30 C 20.0938 4.7574 0.0 0
M  V30 END ATOM
M  V30 BEGIN BOND
M  V30 1 1 1 2
M  V30 2 2 2 3
M  V30 3 1 2 4
M  V30 4 1 3 5
M  V30 5 2 4 6
M  V30 6 1 5 7
M  V30 7 2 5 8
M  V30 8 1 6 9
M  V30 9 1 9 10
M  V30 10 2 10 11
M  V30 11 1 10 12
M  V30 12 1 12 13
M  V30 13 1 13 14
M  V30 14 2 14 15
M  V30 15 1 14 16
M  V30 16 1 15 17
M  V30 17 2 16 18
M  V30 18 1 17 19
M  V30 19 2 17 20
M  V30 20 1 19 21
M  V30 21 2 19 22
M  V30 22 2 21 23
M  V30 23 1 22 24
M  V30 24 1 23 25
M  V30 25 2 25 26
M  V30 26 1 25 27
M  V30 27 1 26 28
M  V30 28 2 27 29
M  V30 29 2 28 30
M  V30 30 1 6 8
M  V30 31 1 18 20
M  V30 32 1 23 24
M  V30 33 1 29 30
M  V30 END BOND
M  V30 END CTAB
M  END
>  <Ligand InChI>
InChI=1S/C21H14Cl2N4OS2/c22-14-8-15(23)10-16(9-14)25-19(28)12-30-21-24-7-6-17(27-21)18-11-29-20(26-18)13-4-2-1-3-5-13/h1-11H,12H2,(H,25,28)

>  <Ligand InChI Key>
LILOEJREEQFTPM-UHFFFAOYSA-N

>  <BindingDB MonomerID>
11264

>  <Target Name Assigned by Curator or DataSource>
3C-like proteinase (3CL-PRO)

>  <Target Source Organism According to Curator or DataSource>
Human SARS coronavirus

>  <IC50 (nM)>
3000

>  <PMID>
26878082

>  <Ligand HET ID in PDB>


>  <PDB ID(s) for Ligand-Target Complex>


>  <PubChem CID>
2744814

>  <PubChem SID>
46511812

>  <ChEMBL ID of Ligand>


>  <DrugBank ID of Ligand>


>  <ZINC ID of Ligand>
ZINC01047806

>  <PDB ID(s) of Target Chain>
1Q2W,1QZ8,1UJ1,1UK2,1UK3,1UK4,1UW7,1WOF,1Z1I,2A5A,2A5I,2A5K,2ACF,2AHM,2ALV,2AMD,2AMQ,2BX3,2BX4,2C3S,2D2D,2DUC,2FAV,2FE8,2FYG,2G9T,2GA6,2GDT,2GRI,2GT7,2GT8,2GTB,2GX4,2GZ7,2GZ8,2GZ9,2H2Z,2HOB,2HSX,2IDY,2JZF,2K7X,2K87,2KAF,2LIZ,2OP9,2OZK,2RNK,2V6N,2VJ1,2XYQ,2XYR,2XYV,2Z3C,2Z3D,2Z3E,2Z94,2Z9G,2Z9J,2Z9K,2Z9L,2ZU4,2ZU5,3D62,3E91,3E9S,3EA7,3EA8,3EBN,3IWM,3M3V,3MJ5,3R24,3SN8,3SNA,3SNB,3SNC,3SND,3SNE,3SZN,3TIT,3TIU,3TNS,3TNT,3V3M,3VB3,3VB4,3VB5,3VB6,3VB7,4MDS,4MM3,4OVZ,4OW0,5C8S,5C8T,5C8U,5F22,5N19,5N5O,5NFY,5TL6,5TL7,5Y3E,5Y3Q,6JYT,6LNQ,6LNY,6LO0,6NUR,6NUS,6W2A,6W79,6WCO,6XHL,6XHN,6XHO,6XMK,6XOA,7AKU,7C2K,7JOY

>  <Smiles>
O=C(CSc1nc(-c2csc(-c3ccccc3)n2)ccn1)Nc1cc(Cl)cc(Cl)c1

$$$$
429298
Actelion Java MolfileCreator 2.0

  0  0  0  0  0  0              0 V3000
M  V30 BEGIN CTAB
M  V30 COUNTS 24 27 0 0 0
M  V30 BEGIN ATOM
M  V30 1 F 0.0 0.0 0.0 0
M  V30 2 C 1.106 -0.9989 0.0 0
M  V30 3 C 2.5331 -0.5232 0.0 0
M  V30 4 C 0.7849 -2.4618 0.0 0
M  V30 5 C 3.6392 -1.5222 0.0 0
M  V30 6 C 1.8909 -3.4608 0.0 0
M  V30 7 N 5.1258 -1.3557 0.0 0
M  V30 8 C 3.318 -2.985 0.0 0
M  V30 9 C 5.7323 -2.7234 0.0 0
M  V30 10 C 4.6144 -3.7343 0.0 0
M  V30 11 C 7.1951 -3.0207 0.0 0
M  V30 12 O 8.1941 -1.8909 0.0 0
M  V30 13 C 7.647 -4.4479 0.0 0
M  V30 14 O 6.6243 -5.5539 0.0 0
M  V30 15 O 9.1099 -4.7452 0.0 0
M  V30 16 N 9.5618 -6.1723 0.0 0
M  V30 17 N 8.6579 -7.3854 0.0 0
M  V30 18 C 10.9889 -6.6243 0.0 0
M  V30 19 N 9.538 -8.5985 0.0 0
M  V30 20 C 10.977 -8.1227 0.0 0
M  V30 21 C 12.2852 -5.8512 0.0 0
M  V30 22 C 12.2733 -8.872 0.0 0
M  V30 23 C 13.5816 -6.6005 0.0 0
M  V30 24 C 13.5697 -8.099 0.0 0
M  V30 END ATOM
M  V30 BEGIN BOND
M  V30 1 1 1 2
M  V30 2 2 2 3
M  V30 3 1 2 4
M  V30 4 1 3 5
M  V30 5 2 4 6
M  V30 6 1 5 7
M  V30 7 1 5 8
M  V30 8 2 7 9
M  V30 9 2 8 10
M  V30 10 1 9 11
M  V30 11 2 11 12
M  V30 12 1 11 13
M  V30 13 2 13 14
M  V30 14 1 13 15
M  V30 15 1 15 16
M  V30 16 1 16 17
M  V30 17 1 16 18
M  V30 18 2 17 19
M  V30 19 2 18 20
M  V30 20 1 18 21
M  V30 21 1 20 22
M  V30 22 2 21 23
M  V30 23 2 22 24
M  V30 24 1 6 8
M  V30 25 1 9 10
M  V30 26 1 19 20
M  V30 27 1 23 24
M  V30 END BOND
M  V30 END CTAB
M  END
>  <Ligand InChI>
InChI=1S/C16H9FN4O3/c17-10-6-5-9-7-13(18-12(9)8-10)15(22)16(23)24-21-14-4-2-1-3-11(14)19-20-21/h1-8,18H

>  <Ligand InChI Key>
IBOOFFOPCKBWBT-UHFFFAOYSA-N

>  <BindingDB MonomerID>
429298

>  <Target Name Assigned by Curator or DataSource>
3C-like proteinase (3CL-PRO)

>  <Target Source Organism According to Curator or DataSource>
Human SARS coronavirus

>  <IC50 (nM)>
14

>  <PMID>
26878082

>  <Ligand HET ID in PDB>


>  <PDB ID(s) for Ligand-Target Complex>


>  <PubChem CID>


>  <PubChem SID>


>  <ChEMBL ID of Ligand>


>  <DrugBank ID of Ligand>


>  <ZINC ID of Ligand>


>  <PDB ID(s) of Target Chain>
1Q2W,1QZ8,1UJ1,1UK2,1UK3,1UK4,1UW7,1WOF,1Z1I,2A5A,2A5I,2A5K,2ACF,2AHM,2ALV,2AMD,2AMQ,2BX3,2BX4,2C3S,2D2D,2DUC,2FAV,2FE8,2FYG,2G9T,2GA6,2GDT,2GRI,2GT7,2GT8,2GTB,2GX4,2GZ7,2GZ8,2GZ9,2H2Z,2HOB,2HSX,2IDY,2JZF,2K7X,2K87,2KAF,2LIZ,2OP9,2OZK,2RNK,2V6N,2VJ1,2XYQ,2XYR,2XYV,2Z3C,2Z3D,2Z3E,2Z94,2Z9G,2Z9J,2Z9K,2Z9L,2ZU4,2ZU5,3D62,3E91,3E9S,3EA7,3EA8,3EBN,3IWM,3M3V,3MJ5,3R24,3SN8,3SNA,3SNB,3SNC,3SND,3SNE,3SZN,3TIT,3TIU,3TNS,3TNT,3V3M,3VB3,3VB4,3VB5,3VB6,3VB7,4MDS,4MM3,4OVZ,4OW0,5C8S,5C8T,5C8U,5F22,5N19,5N5O,5NFY,5TL6,5TL7,5Y3E,5Y3Q,6JYT,6LNQ,6LNY,6LO0,6NUR,6NUS,6W2A,6W79,6WCO,6XHL,6XHN,6XHO,6XMK,6XOA,7AKU,7C2K,7JOY

>  <Smiles>
O=C(C(On1nnc2c1cccc2)=O)C1=NC(C=C(C=C2)F)C2=C1

$$$$
429299
Actelion Java MolfileCreator 2.0

  0  0  0  0  0  0              0 V3000
M  V30 BEGIN CTAB
M  V30 COUNTS 15 16 0 0 0
M  V30 BEGIN ATOM
M  V30 1 Cl 0.0 0.0 0.0 0
M  V30 2 C -1.3139 -0.7339 0.0 0
M  V30 3 C -2.6278 0.0236 0.0 0
M  V30 4 C -1.3257 -2.2253 0.0 0
M  V30 5 N -3.9417 -0.7102 0.0 0
M  V30 6 C -2.6396 -2.9592 0.0 0
M  V30 7 C -3.9536 -2.2017 0.0 0
M  V30 8 O -2.6515 -4.4507 0.0 0
M  V30 9 C -1.3612 -5.1846 0.0 0
M  V30 10 O -0.071 -4.427 0.0 0
M  V30 11 C -1.3731 -6.6761 0.0 0
M  V30 12 S -2.6041 -7.552 0.0 0
M  V30 13 C -0.1657 -7.552 0.0 0
M  V30 14 C -2.1543 -8.9725 0.0 0
M  V30 15 C -0.6392 -8.9725 0.0 0
M  V30 END ATOM
M  V30 BEGIN BOND
M  V30 1 1 1 2
M  V30 2 2 2 3
M  V30 3 1 2 4
M  V30 4 1 3 5
M  V30 5 2 4 6
M  V30 6 2 5 7
M  V30 7 1 6 8
M  V30 8 1 8 9
M  V30 9 2 9 10
M  V30 10 1 9 11
M  V30 11 1 11 12
M  V30 12 2 11 13
M  V30 13 1 12 14
M  V30 14 1 13 15
M  V30 15 1 6 7
M  V30 16 2 14 15
M  V30 END BOND
M  V30 END CTAB
M  END
>  <Ligand InChI>
InChI=1S/C10H6ClNO2S/c11-7-4-8(6-12-5-7)14-10(13)9-2-1-3-15-9/h1-6H

>  <Ligand InChI Key>
PAVJYVVZIJTAHT-UHFFFAOYSA-N

>  <BindingDB MonomerID>
429299

>  <Target Name Assigned by Curator or DataSource>
3C-like proteinase (3CL-PRO)

>  <Target Source Organism According to Curator or DataSource>
Human SARS coronavirus

>  <IC50 (nM)>
500

>  <PMID>
26878082

>  <Ligand HET ID in PDB>


>  <PDB ID(s) for Ligand-Target Complex>


>  <PubChem CID>


>  <PubChem SID>


>  <ChEMBL ID of Ligand>


>  <DrugBank ID of Ligand>


>  <ZINC ID of Ligand>


>  <PDB ID(s) of Target Chain>
1Q2W,1QZ8,1UJ1,1UK2,1UK3,1UK4,1UW7,1WOF,1Z1I,2A5A,2A5I,2A5K,2ACF,2AHM,2ALV,2AMD,2AMQ,2BX3,2BX4,2C3S,2D2D,2DUC,2FAV,2FE8,2FYG,2G9T,2GA6,2GDT,2GRI,2GT7,2GT8,2GTB,2GX4,2GZ7,2GZ8,2GZ9,2H2Z,2HOB,2HSX,2IDY,2JZF,2K7X,2K87,2KAF,2LIZ,2OP9,2OZK,2RNK,2V6N,2VJ1,2XYQ,2XYR,2XYV,2Z3C,2Z3D,2Z3E,2Z94,2Z9G,2Z9J,2Z9K,2Z9L,2ZU4,2ZU5,3D62,3E91,3E9S,3EA7,3EA8,3EBN,3IWM,3M3V,3MJ5,3R24,3SN8,3SNA,3SNB,3SNC,3SND,3SNE,3SZN,3TIT,3TIU,3TNS,3TNT,3V3M,3VB3,3VB4,3VB5,3VB6,3VB7,4MDS,4MM3,4OVZ,4OW0,5C8S,5C8T,5C8U,5F22,5N19,5N5O,5NFY,5TL6,5TL7,5Y3E,5Y3Q,6JYT,6LNQ,6LNY,6LO0,6NUR,6NUS,6W2A,6W79,6WCO,6XHL,6XHN,6XHO,6XMK,6XOA,7AKU,7C2K,7JOY

>  <Smiles>
O=C(c1cccs1)Oc1cc(Cl)cnc1

$$$$
32805
Actelion Java MolfileCreator 2.0

  0  0  0  0  0  0              0 V3000
M  V30 BEGIN CTAB
M  V30 COUNTS 15 16 0 0 0
M  V30 BEGIN ATOM
M  V30 1 Cl 0.0 0.0 0.0 0
M  V30 2 C 1.2861 0.7551 0.0 0
M  V30 3 C 2.5722 0.0235 0.0 0
M  V30 4 C 1.2743 2.2654 0.0 0
M  V30 5 N 3.8584 0.7787 0.0 0
M  V30 6 C 2.5604 3.0206 0.0 0
M  V30 7 C 3.8466 2.289 0.0 0
M  V30 8 O 2.5486 4.5309 0.0 0
M  V30 9 C 3.8348 5.2861 0.0 0
M  V30 10 O 5.1209 4.5545 0.0 0
M  V30 11 C 3.823 6.7964 0.0 0
M  V30 12 O 2.5958 7.6932 0.0 0
M  V30 13 C 5.0265 7.6932 0.0 0
M  V30 14 C 3.0442 9.1327 0.0 0
M  V30 15 C 4.5545 9.1327 0.0 0
M  V30 END ATOM
M  V30 BEGIN BOND
M  V30 1 1 1 2
M  V30 2 2 2 3
M  V30 3 1 2 4
M  V30 4 1 3 5
M  V30 5 2 4 6
M  V30 6 2 5 7
M  V30 7 1 6 8
M  V30 8 1 8 9
M  V30 9 2 9 10
M  V30 10 1 9 11
M  V30 11 1 11 12
M  V30 12 2 11 13
M  V30 13 1 12 14
M  V30 14 1 13 15
M  V30 15 1 6 7
M  V30 16 2 14 15
M  V30 END BOND
M  V30 END CTAB
M  END
>  <Ligand InChI>
InChI=1S/C10H6ClNO3/c11-7-4-8(6-12-5-7)15-10(13)9-2-1-3-14-9/h1-6H

>  <Ligand InChI Key>
DWJOEJDGHVXXEB-UHFFFAOYSA-N

>  <BindingDB MonomerID>
32805

>  <Target Name Assigned by Curator or DataSource>
3C-like proteinase (3CL-PRO)

>  <Target Source Organism According to Curator or DataSource>
Human SARS coronavirus

>  <IC50 (nM)>
60

>  <PMID>
26878082

>  <Ligand HET ID in PDB>


>  <PDB ID(s) for Ligand-Target Complex>


>  <PubChem CID>
7230550

>  <PubChem SID>
252615941

>  <ChEMBL ID of Ligand>
CHEMBL222840

>  <DrugBank ID of Ligand>


>  <ZINC ID of Ligand>
ZINC04419293

>  <PDB ID(s) of Target Chain>
1Q2W,1QZ8,1UJ1,1UK2,1UK3,1UK4,1UW7,1WOF,1Z1I,2A5A,2A5I,2A5K,2ACF,2AHM,2ALV,2AMD,2AMQ,2BX3,2BX4,2C3S,2D2D,2DUC,2FAV,2FE8,2FYG,2G9T,2GA6,2GDT,2GRI,2GT7,2GT8,2GTB,2GX4,2GZ7,2GZ8,2GZ9,2H2Z,2HOB,2HSX,2IDY,2JZF,2K7X,2K87,2KAF,2LIZ,2OP9,2OZK,2RNK,2V6N,2VJ1,2XYQ,2XYR,2XYV,2Z3C,2Z3D,2Z3E,2Z94,2Z9G,2Z9J,2Z9K,2Z9L,2ZU4,2ZU5,3D62,3E91,3E9S,3EA7,3EA8,3EBN,3IWM,3M3V,3MJ5,3R24,3SN8,3SNA,3SNB,3SNC,3SND,3SNE,3SZN,3TIT,3TIU,3TNS,3TNT,3V3M,3VB3,3VB4,3VB5,3VB6,3VB7,4MDS,4MM3,4OVZ,4OW0,5C8S,5C8T,5C8U,5F22,5N19,5N5O,5NFY,5TL6,5TL7,5Y3E,5Y3Q,6JYT,6LNQ,6LNY,6LO0,6NUR,6NUS,6W2A,6W79,6WCO,6XHL,6XHN,6XHO,6XMK,6XOA,7AKU,7C2K,7JOY

>  <Smiles>
O=C(c1ccco1)Oc1cc(Cl)cnc1

$$$$
50208940
Actelion Java MolfileCreator 2.0

  0  0  0  0  0  0              0 V3000
M  V30 BEGIN CTAB
M  V30 COUNTS 15 16 0 0 0
M  V30 BEGIN ATOM
M  V30 1 Br 0.0 0.0 0.0 0
M  V30 2 C -0.0944 -1.4876 0.0 0
M  V30 3 C 1.157 -2.3022 0.0 0
M  V30 4 C -1.4404 -2.1606 0.0 0
M  V30 5 N 1.0625 -3.7899 0.0 0
M  V30 6 C -1.5348 -3.6364 0.0 0
M  V30 7 C -0.2833 -4.451 0.0 0
M  V30 8 O -2.8808 -4.2976 0.0 0
M  V30 9 C -4.1677 -3.5065 0.0 0
M  V30 10 O -4.1441 -1.9953 0.0 0
M  V30 11 C -5.5018 -4.2149 0.0 0
M  V30 12 O -6.8714 -3.5537 0.0 0
M  V30 13 C -5.7144 -5.6907 0.0 0
M  V30 14 C -7.9104 -4.6281 0.0 0
M  V30 15 C -7.202 -5.9505 0.0 0
M  V30 END ATOM
M  V30 BEGIN BOND
M  V30 1 1 1 2
M  V30 2 2 2 3
M  V30 3 1 2 4
M  V30 4 1 3 5
M  V30 5 2 4 6
M  V30 6 2 5 7
M  V30 7 1 6 8
M  V30 8 1 8 9
M  V30 9 2 9 10
M  V30 10 1 9 11
M  V30 11 1 11 12
M  V30 12 2 11 13
M  V30 13 1 12 14
M  V30 14 1 13 15
M  V30 15 1 6 7
M  V30 16 2 14 15
M  V30 END BOND
M  V30 END CTAB
M  END
>  <Ligand InChI>
InChI=1S/C10H6BrNO3/c11-7-4-8(6-12-5-7)15-10(13)9-2-1-3-14-9/h1-6H

>  <Ligand InChI Key>
HMICIXHTRIFAET-UHFFFAOYSA-N

>  <BindingDB MonomerID>
50208940

>  <Target Name Assigned by Curator or DataSource>
3C-like proteinase (3CL-PRO)

>  <Target Source Organism According to Curator or DataSource>
Human SARS coronavirus

>  <IC50 (nM)>
50

>  <PMID>
26878082

>  <Ligand HET ID in PDB>


>  <PDB ID(s) for Ligand-Target Complex>


>  <PubChem CID>
16203681

>  <PubChem SID>
104085863

>  <ChEMBL ID of Ligand>
CHEMBL222234

>  <DrugBank ID of Ligand>


>  <ZINC ID of Ligand>
ZINC40584836

>  <PDB ID(s) of Target Chain>
1Q2W,1QZ8,1UJ1,1UK2,1UK3,1UK4,1UW7,1WOF,1Z1I,2A5A,2A5I,2A5K,2ACF,2AHM,2ALV,2AMD,2AMQ,2BX3,2BX4,2C3S,2D2D,2DUC,2FAV,2FE8,2FYG,2G9T,2GA6,2GDT,2GRI,2GT7,2GT8,2GTB,2GX4,2GZ7,2GZ8,2GZ9,2H2Z,2HOB,2HSX,2IDY,2JZF,2K7X,2K87,2KAF,2LIZ,2OP9,2OZK,2RNK,2V6N,2VJ1,2XYQ,2XYR,2XYV,2Z3C,2Z3D,2Z3E,2Z94,2Z9G,2Z9J,2Z9K,2Z9L,2ZU4,2ZU5,3D62,3E91,3E9S,3EA7,3EA8,3EBN,3IWM,3M3V,3MJ5,3R24,3SN8,3SNA,3SNB,3SNC,3SND,3SNE,3SZN,3TIT,3TIU,3TNS,3TNT,3V3M,3VB3,3VB4,3VB5,3VB6,3VB7,4MDS,4MM3,4OVZ,4OW0,5C8S,5C8T,5C8U,5F22,5N19,5N5O,5NFY,5TL6,5TL7,5Y3E,5Y3Q,6JYT,6LNQ,6LNY,6LO0,6NUR,6NUS,6W2A,6W79,6WCO,6XHL,6XHN,6XHO,6XMK,6XOA,7AKU,7C2K,7JOY

>  <Smiles>
O=C(c1ccco1)Oc1cc(Br)cnc1

$$$$
50208939
Actelion Java MolfileCreator 2.0

  0  0  0  0  0  0              0 V3000
M  V30 BEGIN CTAB
M  V30 COUNTS 19 21 0 0 0
M  V30 BEGIN ATOM
M  V30 1 Cl 0.0 0.0 0.0 0
M  V30 2 C -1.3035 -0.7347 0.0 0
M  V30 3 C -1.3154 -2.2279 0.0 0
M  V30 4 C -2.6071 0.0237 0.0 0
M  V30 5 N -2.6308 -2.9626 0.0 0
M  V30 6 C -3.9106 -0.711 0.0 0
M  V30 7 C -3.9343 -2.2042 0.0 0
M  V30 8 O -5.2142 0.0474 0.0 0
M  V30 9 C -6.5178 -0.6873 0.0 0
M  V30 10 O -6.5296 -2.1686 0.0 0
M  V30 11 C -7.8213 0.0711 0.0 0
M  V30 12 N -9.196 -0.5214 0.0 0
M  V30 13 C -7.9872 1.5642 0.0 0
M  V30 14 C -10.2033 0.6043 0.0 0
M  V30 15 C -9.4567 1.8842 0.0 0
M  V30 16 C -11.7083 0.6162 0.0 0
M  V30 17 C -10.2151 3.1878 0.0 0
M  V30 18 C -12.4667 1.9197 0.0 0
M  V30 19 C -11.7202 3.1996 0.0 0
M  V30 END ATOM
M  V30 BEGIN BOND
M  V30 1 1 1 2
M  V30 2 2 2 3
M  V30 3 1 2 4
M  V30 4 1 3 5
M  V30 5 2 4 6
M  V30 6 2 5 7
M  V30 7 1 6 8
M  V30 8 1 8 9
M  V30 9 2 9 10
M  V30 10 1 9 11
M  V30 11 1 11 12
M  V30 12 2 11 13
M  V30 13 1 12 14
M  V30 14 1 13 15
M  V30 15 1 14 16
M  V30 16 1 15 17
M  V30 17 2 16 18
M  V30 18 2 17 19
M  V30 19 1 6 7
M  V30 20 2 14 15
M  V30 21 1 18 19
M  V30 END BOND
M  V30 END CTAB
M  END
>  <Ligand InChI>
InChI=1S/C14H9ClN2O2/c15-10-6-11(8-16-7-10)19-14(18)13-5-9-3-1-2-4-12(9)17-13/h1-8,17H

>  <Ligand InChI Key>
LJTINUKMKJKLBT-UHFFFAOYSA-N

>  <BindingDB MonomerID>
50208939

>  <Target Name Assigned by Curator or DataSource>
3C-like proteinase (3CL-PRO)

>  <Target Source Organism According to Curator or DataSource>
Human SARS coronavirus

>  <IC50 (nM)>
65

>  <PMID>
26878082

>  <Ligand HET ID in PDB>


>  <PDB ID(s) for Ligand-Target Complex>


>  <PubChem CID>
16204322

>  <PubChem SID>
104085862

>  <ChEMBL ID of Ligand>
CHEMBL225515

>  <DrugBank ID of Ligand>


>  <ZINC ID of Ligand>
ZINC40585265

>  <PDB ID(s) of Target Chain>
1Q2W,1QZ8,1UJ1,1UK2,1UK3,1UK4,1UW7,1WOF,1Z1I,2A5A,2A5I,2A5K,2ACF,2AHM,2ALV,2AMD,2AMQ,2BX3,2BX4,2C3S,2D2D,2DUC,2FAV,2FE8,2FYG,2G9T,2GA6,2GDT,2GRI,2GT7,2GT8,2GTB,2GX4,2GZ7,2GZ8,2GZ9,2H2Z,2HOB,2HSX,2IDY,2JZF,2K7X,2K87,2KAF,2LIZ,2OP9,2OZK,2RNK,2V6N,2VJ1,2XYQ,2XYR,2XYV,2Z3C,2Z3D,2Z3E,2Z94,2Z9G,2Z9J,2Z9K,2Z9L,2ZU4,2ZU5,3D62,3E91,3E9S,3EA7,3EA8,3EBN,3IWM,3M3V,3MJ5,3R24,3SN8,3SNA,3SNB,3SNC,3SND,3SNE,3SZN,3TIT,3TIU,3TNS,3TNT,3V3M,3VB3,3VB4,3VB5,3VB6,3VB7,4MDS,4MM3,4OVZ,4OW0,5C8S,5C8T,5C8U,5F22,5N19,5N5O,5NFY,5TL6,5TL7,5Y3E,5Y3Q,6JYT,6LNQ,6LNY,6LO0,6NUR,6NUS,6W2A,6W79,6WCO,6XHL,6XHN,6XHO,6XMK,6XOA,7AKU,7C2K,7JOY

>  <Smiles>
O=C(c1cc(cccc2)c2[nH]1)Oc1cc(Cl)cnc1

$$$$
50208942
Actelion Java MolfileCreator 2.0

  0  0  0  0  0  0              0 V3000
M  V30 BEGIN CTAB
M  V30 COUNTS 22 24 0 0 0
M  V30 BEGIN ATOM
M  V30 1 Cl 0.0 0.0 0.0 0
M  V30 2 C -1.3028 -0.7461 0.0 0
M  V30 3 C -1.3146 -2.2385 0.0 0
M  V30 4 C -2.6175 0.0 0.0 0
M  V30 5 N -2.6293 -2.9728 0.0 0
M  V30 6 C -3.9085 -0.7343 0.0 0
M  V30 7 C -3.9322 -2.2148 0.0 0
M  V30 8 O -5.2114 0.0236 0.0 0
M  V30 9 C -6.5142 -0.7106 0.0 0
M  V30 10 O -6.526 -2.1911 0.0 0
M  V30 11 C -7.8171 0.0473 0.0 0
M  V30 12 O -7.9947 1.5397 0.0 0
M  V30 13 C -9.191 -0.5448 0.0 0
M  V30 14 C -9.4634 1.8595 0.0 0
M  V30 15 C -10.1977 0.5803 0.0 0
M  V30 16 C -10.0793 3.2334 0.0 0
M  V30 17 C -9.2147 4.4533 0.0 0
M  V30 18 C -11.5716 3.3992 0.0 0
M  V30 19 C -9.8306 5.8272 0.0 0
M  V30 20 C -12.1994 4.7731 0.0 0
M  V30 21 C -11.3348 5.9931 0.0 0
M  V30 22 Cl -11.9625 7.367 0.0 0
M  V30 END ATOM
M  V30 BEGIN BOND
M  V30 1 1 1 2
M  V30 2 2 2 3
M  V30 3 1 2 4
M  V30 4 1 3 5
M  V30 5 2 4 6
M  V30 6 2 5 7
M  V30 7 1 6 8
M  V30 8 1 8 9
M  V30 9 2 9 10
M  V30 10 1 9 11
M  V30 11 1 11 12
M  V30 12 2 11 13
M  V30 13 1 12 14
M  V30 14 1 13 15
M  V30 15 1 14 16
M  V30 16 2 16 17
M  V30 17 1 16 18
M  V30 18 1 17 19
M  V30 19 2 18 20
M  V30 20 2 19 21
M  V30 21 1 21 22
M  V30 22 1 6 7
M  V30 23 2 14 15
M  V30 24 1 20 21
M  V30 END BOND
M  V30 END CTAB
M  END
>  <Ligand InChI>
InChI=1S/C16H9Cl2NO3/c17-11-3-1-10(2-4-11)14-5-6-15(22-14)16(20)21-13-7-12(18)8-19-9-13/h1-9H

>  <Ligand InChI Key>
UICFGOSRHHZBHZ-UHFFFAOYSA-N

>  <BindingDB MonomerID>
50208942

>  <Target Name Assigned by Curator or DataSource>
3C-like proteinase (3CL-PRO)

>  <Target Source Organism According to Curator or DataSource>
Human SARS coronavirus

>  <IC50 (nM)>
63

>  <PMID>
26878082

>  <Ligand HET ID in PDB>


>  <PDB ID(s) for Ligand-Target Complex>


>  <PubChem CID>
16203797

>  <PubChem SID>
104085865

>  <ChEMBL ID of Ligand>
CHEMBL222769

>  <DrugBank ID of Ligand>


>  <ZINC ID of Ligand>
ZINC40585026

>  <PDB ID(s) of Target Chain>
1Q2W,1QZ8,1UJ1,1UK2,1UK3,1UK4,1UW7,1WOF,1Z1I,2A5A,2A5I,2A5K,2ACF,2AHM,2ALV,2AMD,2AMQ,2BX3,2BX4,2C3S,2D2D,2DUC,2FAV,2FE8,2FYG,2G9T,2GA6,2GDT,2GRI,2GT7,2GT8,2GTB,2GX4,2GZ7,2GZ8,2GZ9,2H2Z,2HOB,2HSX,2IDY,2JZF,2K7X,2K87,2KAF,2LIZ,2OP9,2OZK,2RNK,2V6N,2VJ1,2XYQ,2XYR,2XYV,2Z3C,2Z3D,2Z3E,2Z94,2Z9G,2Z9J,2Z9K,2Z9L,2ZU4,2ZU5,3D62,3E91,3E9S,3EA7,3EA8,3EBN,3IWM,3M3V,3MJ5,3R24,3SN8,3SNA,3SNB,3SNC,3SND,3SNE,3SZN,3TIT,3TIU,3TNS,3TNT,3V3M,3VB3,3VB4,3VB5,3VB6,3VB7,4MDS,4MM3,4OVZ,4OW0,5C8S,5C8T,5C8U,5F22,5N19,5N5O,5NFY,5TL6,5TL7,5Y3E,5Y3Q,6JYT,6LNQ,6LNY,6LO0,6NUR,6NUS,6W2A,6W79,6WCO,6XHL,6XHN,6XHO,6XMK,6XOA,7AKU,7C2K,7JOY

>  <Smiles>
O=C(c1ccc(-c(cc2)ccc2Cl)o1)Oc1cc(Cl)cnc1

$$$$
429296
Actelion Java MolfileCreator 2.0

  0  0  0  0  0  0              0 V3000
M  V30 BEGIN CTAB
M  V30 COUNTS 23 26 0 0 0
M  V30 BEGIN ATOM
M  V30 1 O 0.0 0.0 0.0 0
M  V30 2 C 1.2838 -0.742 0.0 0
M  V30 3 O 2.5677 0.0235 0.0 0
M  V30 4 C 1.272 -2.2261 0.0 0
M  V30 5 N 2.5559 1.5312 0.0 0
M  V30 6 O 2.5559 -2.9564 0.0 0
M  V30 7 C -0.0353 -2.9564 0.0 0
M  V30 8 N 3.7573 2.4263 0.0 0
M  V30 9 C 1.3309 2.4263 0.0 0
M  V30 10 C -1.3427 -2.2026 0.0 0
M  V30 11 C -0.0471 -4.4405 0.0 0
M  V30 12 N 3.2862 3.8633 0.0 0
M  V30 13 C 1.7785 3.8633 0.0 0
M  V30 14 C -0.1413 2.1319 0.0 0
M  V30 15 C -2.6501 -2.9328 0.0 0
M  V30 16 C -1.3545 -5.1708 0.0 0
M  V30 17 C 0.7656 4.9823 0.0 0
M  V30 18 C -1.1543 3.2508 0.0 0
M  V30 19 C -2.6619 -4.4169 0.0 0
M  V30 20 C -4.0871 -2.4617 0.0 0
M  V30 21 C -0.7067 4.6878 0.0 0
M  V30 22 N -4.0989 -4.8645 0.0 0
M  V30 23 C -4.9823 -3.6631 0.0 0
M  V30 END ATOM
M  V30 BEGIN BOND
M  V30 1 2 1 2
M  V30 2 1 2 3
M  V30 3 1 2 4
M  V30 4 1 3 5
M  V30 5 2 4 6
M  V30 6 1 4 7
M  V30 7 1 5 8
M  V30 8 1 5 9
M  V30 9 2 7 10
M  V30 10 1 7 11
M  V30 11 2 8 12
M  V30 12 2 9 13
M  V30 13 1 9 14
M  V30 14 1 10 15
M  V30 15 2 11 16
M  V30 16 1 13 17
M  V30 17 2 14 18
M  V30 18 1 15 19
M  V30 19 1 15 20
M  V30 20 2 17 21
M  V30 21 2 19 22
M  V30 22 2 20 23
M  V30 23 1 12 13
M  V30 24 1 16 19
M  V30 25 1 18 21
M  V30 26 1 22 23
M  V30 END BOND
M  V30 END CTAB
M  END
>  <Ligand InChI>
InChI=1S/C16H10N4O3/c21-15(11-5-6-12-10(9-11)7-8-17-12)16(22)23-20-14-4-2-1-3-13(14)18-19-20/h1-9,17H

>  <Ligand InChI Key>
VMJNRZSRLJQJBY-UHFFFAOYSA-N

>  <BindingDB MonomerID>
429296

>  <Target Name Assigned by Curator or DataSource>
3C-like proteinase (3CL-PRO)

>  <Target Source Organism According to Curator or DataSource>
Human SARS coronavirus

>  <IC50 (nM)>
200

>  <PMID>
26878082

>  <Ligand HET ID in PDB>


>  <PDB ID(s) for Ligand-Target Complex>


>  <PubChem CID>


>  <PubChem SID>


>  <ChEMBL ID of Ligand>


>  <DrugBank ID of Ligand>


>  <ZINC ID of Ligand>


>  <PDB ID(s) of Target Chain>
1Q2W,1QZ8,1UJ1,1UK2,1UK3,1UK4,1UW7,1WOF,1Z1I,2A5A,2A5I,2A5K,2ACF,2AHM,2ALV,2AMD,2AMQ,2BX3,2BX4,2C3S,2D2D,2DUC,2FAV,2FE8,2FYG,2G9T,2GA6,2GDT,2GRI,2GT7,2GT8,2GTB,2GX4,2GZ7,2GZ8,2GZ9,2H2Z,2HOB,2HSX,2IDY,2JZF,2K7X,2K87,2KAF,2LIZ,2OP9,2OZK,2RNK,2V6N,2VJ1,2XYQ,2XYR,2XYV,2Z3C,2Z3D,2Z3E,2Z94,2Z9G,2Z9J,2Z9K,2Z9L,2ZU4,2ZU5,3D62,3E91,3E9S,3EA7,3EA8,3EBN,3IWM,3M3V,3MJ5,3R24,3SN8,3SNA,3SNB,3SNC,3SND,3SNE,3SZN,3TIT,3TIU,3TNS,3TNT,3V3M,3VB3,3VB4,3VB5,3VB6,3VB7,4MDS,4MM3,4OVZ,4OW0,5C8S,5C8T,5C8U,5F22,5N19,5N5O,5NFY,5TL6,5TL7,5Y3E,5Y3Q,6JYT,6LNQ,6LNY,6LO0,6NUR,6NUS,6W2A,6W79,6WCO,6XHL,6XHN,6XHO,6XMK,6XOA,7AKU,7C2K,7JOY

>  <Smiles>
O=C(C(On1nnc2c1cccc2)=O)C(C=C1)=CC2C1=NC=C2

$$$$
429299
Actelion Java MolfileCreator 2.0

  0  0  0  0  0  0              0 V3000
M  V30 BEGIN CTAB
M  V30 COUNTS 15 16 0 0 0
M  V30 BEGIN ATOM
M  V30 1 Cl 0.0 0.0 0.0 0
M  V30 2 C -1.3139 -0.7339 0.0 0
M  V30 3 C -2.6278 0.0236 0.0 0
M  V30 4 C -1.3257 -2.2253 0.0 0
M  V30 5 N -3.9417 -0.7102 0.0 0
M  V30 6 C -2.6396 -2.9592 0.0 0
M  V30 7 C -3.9536 -2.2017 0.0 0
M  V30 8 O -2.6515 -4.4507 0.0 0
M  V30 9 C -1.3612 -5.1846 0.0 0
M  V30 10 O -0.071 -4.427 0.0 0
M  V30 11 C -1.3731 -6.6761 0.0 0
M  V30 12 S -2.6041 -7.552 0.0 0
M  V30 13 C -0.1657 -7.552 0.0 0
M  V30 14 C -2.1543 -8.9725 0.0 0
M  V30 15 C -0.6392 -8.9725 0.0 0
M  V30 END ATOM
M  V30 BEGIN BOND
M  V30 1 1 1 2
M  V30 2 2 2 3
M  V30 3 1 2 4
M  V30 4 1 3 5
M  V30 5 2 4 6
M  V30 6 2 5 7
M  V30 7 1 6 8
M  V30 8 1 8 9
M  V30 9 2 9 10
M  V30 10 1 9 11
M  V30 11 1 11 12
M  V30 12 2 11 13
M  V30 13 1 12 14
M  V30 14 1 13 15
M  V30 15 1 6 7
M  V30 16 2 14 15
M  V30 END BOND
M  V30 END CTAB
M  END
>  <Ligand InChI>
InChI=1S/C10H6ClNO2S/c11-7-4-8(6-12-5-7)14-10(13)9-2-1-3-15-9/h1-6H

>  <Ligand InChI Key>
PAVJYVVZIJTAHT-UHFFFAOYSA-N

>  <BindingDB MonomerID>
429299

>  <Target Name Assigned by Curator or DataSource>
3C-like proteinase (3CL-PRO)

>  <Target Source Organism According to Curator or DataSource>
Human SARS coronavirus

>  <IC50 (nM)>
500

>  <PMID>
26878082

>  <Ligand HET ID in PDB>


>  <PDB ID(s) for Ligand-Target Complex>


>  <PubChem CID>


>  <PubChem SID>


>  <ChEMBL ID of Ligand>


>  <DrugBank ID of Ligand>


>  <ZINC ID of Ligand>


>  <PDB ID(s) of Target Chain>
1Q2W,1QZ8,1UJ1,1UK2,1UK3,1UK4,1UW7,1WOF,1Z1I,2A5A,2A5I,2A5K,2ACF,2AHM,2ALV,2AMD,2AMQ,2BX3,2BX4,2C3S,2D2D,2DUC,2FAV,2FE8,2FYG,2G9T,2GA6,2GDT,2GRI,2GT7,2GT8,2GTB,2GX4,2GZ7,2GZ8,2GZ9,2H2Z,2HOB,2HSX,2IDY,2JZF,2K7X,2K87,2KAF,2LIZ,2OP9,2OZK,2RNK,2V6N,2VJ1,2XYQ,2XYR,2XYV,2Z3C,2Z3D,2Z3E,2Z94,2Z9G,2Z9J,2Z9K,2Z9L,2ZU4,2ZU5,3D62,3E91,3E9S,3EA7,3EA8,3EBN,3IWM,3M3V,3MJ5,3R24,3SN8,3SNA,3SNB,3SNC,3SND,3SNE,3SZN,3TIT,3TIU,3TNS,3TNT,3V3M,3VB3,3VB4,3VB5,3VB6,3VB7,4MDS,4MM3,4OVZ,4OW0,5C8S,5C8T,5C8U,5F22,5N19,5N5O,5NFY,5TL6,5TL7,5Y3E,5Y3Q,6JYT,6LNQ,6LNY,6LO0,6NUR,6NUS,6W2A,6W79,6WCO,6XHL,6XHN,6XHO,6XMK,6XOA,7AKU,7C2K,7JOY

>  <Smiles>
O=C(c1cccs1)Oc1cc(Cl)cnc1

$$$$
429304
Actelion Java MolfileCreator 2.0

  0  0  0  0  0  0              0 V3000
M  V30 BEGIN CTAB
M  V30 COUNTS 19 21 0 0 0
M  V30 BEGIN ATOM
M  V30 1 Cl 0.0 0.0 0.0 0
M  V30 2 C 1.2833 0.7535 0.0 0
M  V30 3 C 2.5666 0.0235 0.0 0
M  V30 4 C 1.2715 2.2605 0.0 0
M  V30 5 N 3.85 0.777 0.0 0
M  V30 6 C 2.5549 3.0258 0.0 0
M  V30 7 C 3.8382 2.2841 0.0 0
M  V30 8 O 2.5431 4.5329 0.0 0
M  V30 9 C 1.2362 5.2864 0.0 0
M  V30 10 O -0.0706 4.5446 0.0 0
M  V30 11 C 1.2244 6.7934 0.0 0
M  V30 12 C -0.0824 7.5469 0.0 0
M  V30 13 C 2.5078 7.5469 0.0 0
M  V30 14 C -0.0941 9.054 0.0 0
M  V30 15 C -1.5188 7.0995 0.0 0
M  V30 16 C 2.496 9.054 0.0 0
M  V30 17 N -1.5305 9.5249 0.0 0
M  V30 18 C 1.1891 9.8075 0.0 0
M  V30 19 C -2.4136 8.324 0.0 0
M  V30 END ATOM
M  V30 BEGIN BOND
M  V30 1 1 1 2
M  V30 2 2 2 3
M  V30 3 1 2 4
M  V30 4 1 3 5
M  V30 5 2 4 6
M  V30 6 2 5 7
M  V30 7 1 6 8
M  V30 8 1 8 9
M  V30 9 2 9 10
M  V30 10 1 9 11
M  V30 11 1 11 12
M  V30 12 2 11 13
M  V30 13 1 12 14
M  V30 14 1 12 15
M  V30 15 1 13 16
M  V30 16 2 14 17
M  V30 17 1 14 18
M  V30 18 2 15 19
M  V30 19 1 6 7
M  V30 20 2 16 18
M  V30 21 1 17 19
M  V30 END BOND
M  V30 END CTAB
M  END
>  <Ligand InChI>
InChI=1S/C14H9ClN2O2/c15-9-6-10(8-16-7-9)19-14(18)12-2-1-3-13-11(12)4-5-17-13/h1-8,17H

>  <Ligand InChI Key>
BOSZJNSICHFHMA-UHFFFAOYSA-N

>  <BindingDB MonomerID>
429304

>  <Target Name Assigned by Curator or DataSource>
3C-like proteinase (3CL-PRO)

>  <Target Source Organism According to Curator or DataSource>
Human SARS coronavirus

>  <IC50 (nM)>
30

>  <PMID>
26878082

>  <Ligand HET ID in PDB>


>  <PDB ID(s) for Ligand-Target Complex>


>  <PubChem CID>


>  <PubChem SID>


>  <ChEMBL ID of Ligand>


>  <DrugBank ID of Ligand>


>  <ZINC ID of Ligand>


>  <PDB ID(s) of Target Chain>
1Q2W,1QZ8,1UJ1,1UK2,1UK3,1UK4,1UW7,1WOF,1Z1I,2A5A,2A5I,2A5K,2ACF,2AHM,2ALV,2AMD,2AMQ,2BX3,2BX4,2C3S,2D2D,2DUC,2FAV,2FE8,2FYG,2G9T,2GA6,2GDT,2GRI,2GT7,2GT8,2GTB,2GX4,2GZ7,2GZ8,2GZ9,2H2Z,2HOB,2HSX,2IDY,2JZF,2K7X,2K87,2KAF,2LIZ,2OP9,2OZK,2RNK,2V6N,2VJ1,2XYQ,2XYR,2XYV,2Z3C,2Z3D,2Z3E,2Z94,2Z9G,2Z9J,2Z9K,2Z9L,2ZU4,2ZU5,3D62,3E91,3E9S,3EA7,3EA8,3EBN,3IWM,3M3V,3MJ5,3R24,3SN8,3SNA,3SNB,3SNC,3SND,3SNE,3SZN,3TIT,3TIU,3TNS,3TNT,3V3M,3VB3,3VB4,3VB5,3VB6,3VB7,4MDS,4MM3,4OVZ,4OW0,5C8S,5C8T,5C8U,5F22,5N19,5N5O,5NFY,5TL6,5TL7,5Y3E,5Y3Q,6JYT,6LNQ,6LNY,6LO0,6NUR,6NUS,6W2A,6W79,6WCO,6XHL,6XHN,6XHO,6XMK,6XOA,7AKU,7C2K,7JOY

>  <Smiles>
O=C(C1=CC=CC2=NC=CC12)Oc1cc(Cl)cnc1

$$$$
429305
Actelion Java MolfileCreator 2.0

  0  0  0  0  0  0              0 V3000
M  V30 BEGIN CTAB
M  V30 COUNTS 22 24 0 0 0
M  V30 BEGIN ATOM
M  V30 1 Cl 0.0 0.0 0.0 0
M  V30 2 C -1.3134 -0.7454 0.0 0
M  V30 3 C -2.6269 0.0236 0.0 0
M  V30 4 C -1.3253 -2.2364 0.0 0
M  V30 5 N -3.9404 -0.7218 0.0 0
M  V30 6 C -2.6387 -2.97 0.0 0
M  V30 7 C -3.9522 -2.2127 0.0 0
M  V30 8 O -2.6506 -4.461 0.0 0
M  V30 9 C -1.3608 -5.1947 0.0 0
M  V30 10 O -0.0709 -4.4373 0.0 0
M  V30 11 C -1.3726 -6.6856 0.0 0
M  V30 12 C -2.6861 -7.4193 0.0 0
M  V30 13 C -0.0828 -7.4193 0.0 0
M  V30 14 C -2.6979 -8.9102 0.0 0
M  V30 15 C -4.1297 -6.946 0.0 0
M  V30 16 C -0.0946 -8.9102 0.0 0
M  V30 17 N -4.1415 -9.3599 0.0 0
M  V30 18 C -1.4081 -9.6557 0.0 0
M  V30 19 C -5.029 -8.1529 0.0 0
M  V30 20 C -4.6148 -10.7799 0.0 0
M  V30 21 O -3.6209 -11.8803 0.0 0
M  V30 22 C -6.094 -11.0757 0.0 0
M  V30 END ATOM
M  V30 BEGIN BOND
M  V30 1 1 1 2
M  V30 2 2 2 3
M  V30 3 1 2 4
M  V30 4 1 3 5
M  V30 5 2 4 6
M  V30 6 2 5 7
M  V30 7 1 6 8
M  V30 8 1 8 9
M  V30 9 2 9 10
M  V30 10 1 9 11
M  V30 11 2 11 12
M  V30 12 1 11 13
M  V30 13 1 12 14
M  V30 14 1 12 15
M  V30 15 2 13 16
M  V30 16 1 14 17
M  V30 17 2 14 18
M  V30 18 2 15 19
M  V30 19 1 17 20
M  V30 20 2 20 21
M  V30 21 1 20 22
M  V30 22 1 6 7
M  V30 23 1 16 18
M  V30 24 1 17 19
M  V30 END BOND
M  V30 END CTAB
M  END
>  <Ligand InChI>
InChI=1S/C16H11ClN2O3/c1-10(20)19-6-5-13-14(3-2-4-15(13)19)16(21)22-12-7-11(17)8-18-9-12/h2-9H,1H3

>  <Ligand InChI Key>
ADZDQOZVSUYRGT-UHFFFAOYSA-N

>  <BindingDB MonomerID>
429305

>  <Target Name Assigned by Curator or DataSource>
3C-like proteinase (3CL-PRO)

>  <Target Source Organism According to Curator or DataSource>
Human SARS coronavirus

>  <IC50 (nM)>
>1000

>  <PMID>
26878082

>  <Ligand HET ID in PDB>


>  <PDB ID(s) for Ligand-Target Complex>


>  <PubChem CID>


>  <PubChem SID>


>  <ChEMBL ID of Ligand>


>  <DrugBank ID of Ligand>


>  <ZINC ID of Ligand>


>  <PDB ID(s) of Target Chain>
1Q2W,1QZ8,1UJ1,1UK2,1UK3,1UK4,1UW7,1WOF,1Z1I,2A5A,2A5I,2A5K,2ACF,2AHM,2ALV,2AMD,2AMQ,2BX3,2BX4,2C3S,2D2D,2DUC,2FAV,2FE8,2FYG,2G9T,2GA6,2GDT,2GRI,2GT7,2GT8,2GTB,2GX4,2GZ7,2GZ8,2GZ9,2H2Z,2HOB,2HSX,2IDY,2JZF,2K7X,2K87,2KAF,2LIZ,2OP9,2OZK,2RNK,2V6N,2VJ1,2XYQ,2XYR,2XYV,2Z3C,2Z3D,2Z3E,2Z94,2Z9G,2Z9J,2Z9K,2Z9L,2ZU4,2ZU5,3D62,3E91,3E9S,3EA7,3EA8,3EBN,3IWM,3M3V,3MJ5,3R24,3SN8,3SNA,3SNB,3SNC,3SND,3SNE,3SZN,3TIT,3TIU,3TNS,3TNT,3V3M,3VB3,3VB4,3VB5,3VB6,3VB7,4MDS,4MM3,4OVZ,4OW0,5C8S,5C8T,5C8U,5F22,5N19,5N5O,5NFY,5TL6,5TL7,5Y3E,5Y3Q,6JYT,6LNQ,6LNY,6LO0,6NUR,6NUS,6W2A,6W79,6WCO,6XHL,6XHN,6XHO,6XMK,6XOA,7AKU,7C2K,7JOY

>  <Smiles>
CC(n1c2cccc(C(Oc3cc(Cl)cnc3)=O)c2cc1)=O

$$$$
429306
Actelion Java MolfileCreator 2.0

  0  0  0  0  0  0              0 V3000
M  V30 BEGIN CTAB
M  V30 COUNTS 19 21 0 0 0
M  V30 BEGIN ATOM
M  V30 1 Cl 0.0 0.0 0.0 0
M  V30 2 C -1.3071 0.7654 0.0 0
M  V30 3 C -1.3189 2.2728 0.0 0
M  V30 4 C -2.6143 0.0235 0.0 0
M  V30 5 N -2.6261 3.0264 0.0 0
M  V30 6 C -3.9214 0.789 0.0 0
M  V30 7 C -3.9332 2.2963 0.0 0
M  V30 8 O -5.2286 0.0471 0.0 0
M  V30 9 C -5.2404 -1.4367 0.0 0
M  V30 10 O -3.9568 -2.1668 0.0 0
M  V30 11 C -6.5475 -2.1668 0.0 0
M  V30 12 C -7.8547 -1.4131 0.0 0
M  V30 13 C -6.5593 -3.6506 0.0 0
M  V30 14 C -9.1619 -2.1432 0.0 0
M  V30 15 C -7.8665 -4.3807 0.0 0
M  V30 16 C -9.1736 -3.627 0.0 0
M  V30 17 C -10.5986 -1.6722 0.0 0
M  V30 18 N -10.6103 -4.0745 0.0 0
M  V30 19 C -11.4936 -2.8734 0.0 0
M  V30 END ATOM
M  V30 BEGIN BOND
M  V30 1 1 1 2
M  V30 2 2 2 3
M  V30 3 1 2 4
M  V30 4 1 3 5
M  V30 5 2 4 6
M  V30 6 2 5 7
M  V30 7 1 6 8
M  V30 8 1 8 9
M  V30 9 2 9 10
M  V30 10 1 9 11
M  V30 11 2 11 12
M  V30 12 1 11 13
M  V30 13 1 12 14
M  V30 14 2 13 15
M  V30 15 1 14 16
M  V30 16 1 14 17
M  V30 17 2 16 18
M  V30 18 2 17 19
M  V30 19 1 6 7
M  V30 20 1 15 16
M  V30 21 1 18 19
M  V30 END BOND
M  V30 END CTAB
M  END
>  <Ligand InChI>
InChI=1S/C14H9ClN2O2/c15-11-6-12(8-16-7-11)19-14(18)10-1-2-13-9(5-10)3-4-17-13/h1-8,17H

>  <Ligand InChI Key>
TYLOEMFGLQBHPE-UHFFFAOYSA-N

>  <BindingDB MonomerID>
429306

>  <Target Name Assigned by Curator or DataSource>
3C-like proteinase (3CL-PRO)

>  <Target Source Organism According to Curator or DataSource>
Human SARS coronavirus

>  <IC50 (nM)>
310

>  <PMID>
26878082

>  <Ligand HET ID in PDB>


>  <PDB ID(s) for Ligand-Target Complex>


>  <PubChem CID>


>  <PubChem SID>


>  <ChEMBL ID of Ligand>


>  <DrugBank ID of Ligand>


>  <ZINC ID of Ligand>


>  <PDB ID(s) of Target Chain>
1Q2W,1QZ8,1UJ1,1UK2,1UK3,1UK4,1UW7,1WOF,1Z1I,2A5A,2A5I,2A5K,2ACF,2AHM,2ALV,2AMD,2AMQ,2BX3,2BX4,2C3S,2D2D,2DUC,2FAV,2FE8,2FYG,2G9T,2GA6,2GDT,2GRI,2GT7,2GT8,2GTB,2GX4,2GZ7,2GZ8,2GZ9,2H2Z,2HOB,2HSX,2IDY,2JZF,2K7X,2K87,2KAF,2LIZ,2OP9,2OZK,2RNK,2V6N,2VJ1,2XYQ,2XYR,2XYV,2Z3C,2Z3D,2Z3E,2Z94,2Z9G,2Z9J,2Z9K,2Z9L,2ZU4,2ZU5,3D62,3E91,3E9S,3EA7,3EA8,3EBN,3IWM,3M3V,3MJ5,3R24,3SN8,3SNA,3SNB,3SNC,3SND,3SNE,3SZN,3TIT,3TIU,3TNS,3TNT,3V3M,3VB3,3VB4,3VB5,3VB6,3VB7,4MDS,4MM3,4OVZ,4OW0,5C8S,5C8T,5C8U,5F22,5N19,5N5O,5NFY,5TL6,5TL7,5Y3E,5Y3Q,6JYT,6LNQ,6LNY,6LO0,6NUR,6NUS,6W2A,6W79,6WCO,6XHL,6XHN,6XHO,6XMK,6XOA,7AKU,7C2K,7JOY

>  <Smiles>
O=C(C(C=C1)=CC2C1=NC=C2)Oc1cc(Cl)cnc1

$$$$
429307
Actelion Java MolfileCreator 2.0

  0  0  0  0  0  0              0 V3000
M  V30 BEGIN CTAB
M  V30 COUNTS 19 21 0 0 0
M  V30 BEGIN ATOM
M  V30 1 Cl 0.0 0.0 0.0 0
M  V30 2 C -1.3071 0.7654 0.0 0
M  V30 3 C -2.6143 0.0235 0.0 0
M  V30 4 C -1.3189 2.2728 0.0 0
M  V30 5 C -3.9214 0.789 0.0 0
M  V30 6 C -2.6261 3.0264 0.0 0
M  V30 7 O -5.2286 0.0471 0.0 0
M  V30 8 N -3.9332 2.2963 0.0 0
M  V30 9 C -5.2404 -1.4367 0.0 0
M  V30 10 O -3.9568 -2.1668 0.0 0
M  V30 11 C -6.5475 -2.1668 0.0 0
M  V30 12 C -7.8547 -1.4131 0.0 0
M  V30 13 C -6.5593 -3.6506 0.0 0
M  V30 14 C -9.1619 -2.1432 0.0 0
M  V30 15 C -7.8665 -4.3807 0.0 0
M  V30 16 N -10.5986 -1.6722 0.0 0
M  V30 17 C -9.1736 -3.627 0.0 0
M  V30 18 C -11.4936 -2.8734 0.0 0
M  V30 19 C -10.6103 -4.0745 0.0 0
M  V30 END ATOM
M  V30 BEGIN BOND
M  V30 1 1 1 2
M  V30 2 2 2 3
M  V30 3 1 2 4
M  V30 4 1 3 5
M  V30 5 2 4 6
M  V30 6 1 5 7
M  V30 7 2 5 8
M  V30 8 1 7 9
M  V30 9 2 9 10
M  V30 10 1 9 11
M  V30 11 2 11 12
M  V30 12 1 11 13
M  V30 13 1 12 14
M  V30 14 2 13 15
M  V30 15 1 14 16
M  V30 16 1 14 17
M  V30 17 2 16 18
M  V30 18 2 17 19
M  V30 19 1 6 8
M  V30 20 1 15 17
M  V30 21 1 18 19
M  V30 END BOND
M  V30 END CTAB
M  END
>  <Ligand InChI>
InChI=1S/C14H9ClN2O2/c15-11-4-6-17-13(8-11)19-14(18)10-2-1-9-3-5-16-12(9)7-10/h1-8,16H

>  <Ligand InChI Key>
FFBGIJBRBAEHCU-UHFFFAOYSA-N

>  <BindingDB MonomerID>
429307

>  <Target Name Assigned by Curator or DataSource>
3C-like proteinase (3CL-PRO)

>  <Target Source Organism According to Curator or DataSource>
Human SARS coronavirus

>  <IC50 (nM)>
230

>  <PMID>
26878082

>  <Ligand HET ID in PDB>


>  <PDB ID(s) for Ligand-Target Complex>


>  <PubChem CID>


>  <PubChem SID>


>  <ChEMBL ID of Ligand>


>  <DrugBank ID of Ligand>


>  <ZINC ID of Ligand>


>  <PDB ID(s) of Target Chain>
1Q2W,1QZ8,1UJ1,1UK2,1UK3,1UK4,1UW7,1WOF,1Z1I,2A5A,2A5I,2A5K,2ACF,2AHM,2ALV,2AMD,2AMQ,2BX3,2BX4,2C3S,2D2D,2DUC,2FAV,2FE8,2FYG,2G9T,2GA6,2GDT,2GRI,2GT7,2GT8,2GTB,2GX4,2GZ7,2GZ8,2GZ9,2H2Z,2HOB,2HSX,2IDY,2JZF,2K7X,2K87,2KAF,2LIZ,2OP9,2OZK,2RNK,2V6N,2VJ1,2XYQ,2XYR,2XYV,2Z3C,2Z3D,2Z3E,2Z94,2Z9G,2Z9J,2Z9K,2Z9L,2ZU4,2ZU5,3D62,3E91,3E9S,3EA7,3EA8,3EBN,3IWM,3M3V,3MJ5,3R24,3SN8,3SNA,3SNB,3SNC,3SND,3SNE,3SZN,3TIT,3TIU,3TNS,3TNT,3V3M,3VB3,3VB4,3VB5,3VB6,3VB7,4MDS,4MM3,4OVZ,4OW0,5C8S,5C8T,5C8U,5F22,5N19,5N5O,5NFY,5TL6,5TL7,5Y3E,5Y3Q,6JYT,6LNQ,6LNY,6LO0,6NUR,6NUS,6W2A,6W79,6WCO,6XHL,6XHN,6XHO,6XMK,6XOA,7AKU,7C2K,7JOY

>  <Smiles>
O=C(C1=CC2N=CC=C2C=C1)Oc1nccc(Cl)c1

$$$$
429308
Actelion Java MolfileCreator 2.0

  0  0  0  0  0  0              0 V3000
M  V30 BEGIN CTAB
M  V30 COUNTS 19 21 0 0 0
M  V30 BEGIN ATOM
M  V30 1 Cl 0.0 0.0 0.0 0
M  V30 2 C -1.3137 -0.7337 0.0 0
M  V30 3 C -1.3255 -2.225 0.0 0
M  V30 4 C -2.6274 0.0236 0.0 0
M  V30 5 C -2.6392 -2.9706 0.0 0
M  V30 6 C -3.9411 -0.7101 0.0 0
M  V30 7 O -2.651 -4.4618 0.0 0
M  V30 8 N -3.9529 -2.2013 0.0 0
M  V30 9 C -1.361 -5.1956 0.0 0
M  V30 10 O -0.071 -4.4381 0.0 0
M  V30 11 C -1.3728 -6.6868 0.0 0
M  V30 12 C -2.6865 -7.4206 0.0 0
M  V30 13 C -0.0828 -7.4206 0.0 0
M  V30 14 N -4.1304 -6.9472 0.0 0
M  V30 15 C -2.6984 -8.9118 0.0 0
M  V30 16 C -0.0946 -8.9118 0.0 0
M  V30 17 C -5.0299 -8.1544 0.0 0
M  V30 18 C -1.4083 -9.6456 0.0 0
M  V30 19 C -4.1423 -9.3616 0.0 0
M  V30 END ATOM
M  V30 BEGIN BOND
M  V30 1 1 1 2
M  V30 2 2 2 3
M  V30 3 1 2 4
M  V30 4 1 3 5
M  V30 5 2 4 6
M  V30 6 1 5 7
M  V30 7 2 5 8
M  V30 8 1 7 9
M  V30 9 2 9 10
M  V30 10 1 9 11
M  V30 11 1 11 12
M  V30 12 2 11 13
M  V30 13 1 12 14
M  V30 14 1 12 15
M  V30 15 1 13 16
M  V30 16 2 14 17
M  V30 17 1 15 18
M  V30 18 2 15 19
M  V30 19 1 6 8
M  V30 20 2 16 18
M  V30 21 1 17 19
M  V30 END BOND
M  V30 END CTAB
M  END
>  <Ligand InChI>
InChI=1S/C14H9ClN2O2/c15-10-5-7-16-12(8-10)19-14(18)11-3-1-2-9-4-6-17-13(9)11/h1-8,17H

>  <Ligand InChI Key>
WVEQLJRIAHWINP-UHFFFAOYSA-N

>  <BindingDB MonomerID>
429308

>  <Target Name Assigned by Curator or DataSource>
3C-like proteinase (3CL-PRO)

>  <Target Source Organism According to Curator or DataSource>
Human SARS coronavirus

>  <IC50 (nM)>
80

>  <PMID>
26878082

>  <Ligand HET ID in PDB>


>  <PDB ID(s) for Ligand-Target Complex>


>  <PubChem CID>


>  <PubChem SID>


>  <ChEMBL ID of Ligand>


>  <DrugBank ID of Ligand>


>  <ZINC ID of Ligand>


>  <PDB ID(s) of Target Chain>
1Q2W,1QZ8,1UJ1,1UK2,1UK3,1UK4,1UW7,1WOF,1Z1I,2A5A,2A5I,2A5K,2ACF,2AHM,2ALV,2AMD,2AMQ,2BX3,2BX4,2C3S,2D2D,2DUC,2FAV,2FE8,2FYG,2G9T,2GA6,2GDT,2GRI,2GT7,2GT8,2GTB,2GX4,2GZ7,2GZ8,2GZ9,2H2Z,2HOB,2HSX,2IDY,2JZF,2K7X,2K87,2KAF,2LIZ,2OP9,2OZK,2RNK,2V6N,2VJ1,2XYQ,2XYR,2XYV,2Z3C,2Z3D,2Z3E,2Z94,2Z9G,2Z9J,2Z9K,2Z9L,2ZU4,2ZU5,3D62,3E91,3E9S,3EA7,3EA8,3EBN,3IWM,3M3V,3MJ5,3R24,3SN8,3SNA,3SNB,3SNC,3SND,3SNE,3SZN,3TIT,3TIU,3TNS,3TNT,3V3M,3VB3,3VB4,3VB5,3VB6,3VB7,4MDS,4MM3,4OVZ,4OW0,5C8S,5C8T,5C8U,5F22,5N19,5N5O,5NFY,5TL6,5TL7,5Y3E,5Y3Q,6JYT,6LNQ,6LNY,6LO0,6NUR,6NUS,6W2A,6W79,6WCO,6XHL,6XHN,6XHO,6XMK,6XOA,7AKU,7C2K,7JOY

>  <Smiles>
O=C(C1=CC=CC2=CC=NC12)Oc1nccc(Cl)c1

$$$$
429314
Actelion Java MolfileCreator 2.0

  0  0  0  0  0  0              0 V3000
M  V30 BEGIN CTAB
M  V30 COUNTS 32 36 0 0 0
M  V30 BEGIN ATOM
M  V30 1 Br 0.0 0.0 0.0 0
M  V30 2 C -0.8925 1.2213 0.0 0
M  V30 3 C -0.2936 2.5954 0.0 0
M  V30 4 C -2.384 1.0804 0.0 0
M  V30 5 C -1.1861 3.8168 0.0 0
M  V30 6 C -3.2765 2.3018 0.0 0
M  V30 7 C -2.6776 3.6758 0.0 0
M  V30 8 C -3.5701 4.8972 0.0 0
M  V30 9 N -5.0734 4.909 0.0 0
M  V30 10 C -3.1239 6.33 0.0 0
M  V30 11 N -5.5432 6.3418 0.0 0
M  V30 12 N -1.7146 6.7998 0.0 0
M  V30 13 C -4.3453 7.2226 0.0 0
M  V30 14 C -6.9759 6.8115 0.0 0
M  V30 15 C -0.5167 5.9307 0.0 0
M  V30 16 C -1.2683 8.2325 0.0 0
M  V30 17 C -4.357 8.7258 0.0 0
M  V30 18 C -7.293 8.2795 0.0 0
M  V30 19 C -8.0916 5.825 0.0 0
M  V30 20 N 0.6811 6.8233 0.0 0
M  V30 21 C 0.2113 8.2443 0.0 0
M  V30 22 C -3.0769 9.4774 0.0 0
M  V30 23 C -5.6606 9.4774 0.0 0
M  V30 24 C -8.7258 8.7493 0.0 0
M  V30 25 C -9.5244 6.2948 0.0 0
M  V30 26 C -3.0886 10.9807 0.0 0
M  V30 27 C -5.6723 10.9807 0.0 0
M  V30 28 Cl -9.0429 10.2173 0.0 0
M  V30 29 C -9.8415 7.7628 0.0 0
M  V30 30 C -4.3922 11.7323 0.0 0
M  V30 31 Cl -11.2743 8.2325 0.0 0
M  V30 32 Cl -4.404 13.2355 0.0 0
M  V30 END ATOM
M  V30 BEGIN BOND
M  V30 1 1 1 2
M  V30 2 2 2 3
M  V30 3 1 2 4
M  V30 4 1 3 5
M  V30 5 2 4 6
M  V30 6 2 5 7
M  V30 7 1 7 8
M  V30 8 2 8 9
M  V30 9 1 8 10
M  V30 10 1 9 11
M  V30 11 1 10 12
M  V30 12 2 10 13
M  V30 13 1 11 14
M  V30 14 1 12 15
M  V30 15 1 12 16
M  V30 16 1 13 17
M  V30 17 2 14 18
M  V30 18 1 14 19
M  V30 19 2 15 20
M  V30 20 2 16 21
M  V30 21 2 17 22
M  V30 22 1 17 23
M  V30 23 1 18 24
M  V30 24 2 19 25
M  V30 25 1 22 26
M  V30 26 2 23 27
M  V30 27 1 24 28
M  V30 28 2 24 29
M  V30 29 2 26 30
M  V30 30 1 29 31
M  V30 31 1 30 32
M  V30 32 1 6 7
M  V30 33 1 11 13
M  V30 34 1 20 21
M  V30 35 1 25 29
M  V30 36 1 27 30
M  V30 END BOND
M  V30 END CTAB
M  END
>  <Ligand InChI>
InChI=1S/C24H14BrCl3N4/c25-17-5-1-15(2-6-17)22-24(31-12-11-29-14-31)23(16-3-7-18(26)8-4-16)32(30-22)19-9-10-20(27)21(28)13-19/h1-14H

>  <Ligand InChI Key>
KXIOGQRSFMIHRF-UHFFFAOYSA-N

>  <BindingDB MonomerID>
429314

>  <Target Name Assigned by Curator or DataSource>
3C-like proteinase (3CL-PRO)

>  <Target Source Organism According to Curator or DataSource>
Human SARS coronavirus

>  <IC50 (nM)>
2500

>  <PMID>
26878082

>  <Ligand HET ID in PDB>


>  <PDB ID(s) for Ligand-Target Complex>


>  <PubChem CID>


>  <PubChem SID>


>  <ChEMBL ID of Ligand>


>  <DrugBank ID of Ligand>


>  <ZINC ID of Ligand>


>  <PDB ID(s) of Target Chain>
1Q2W,1QZ8,1UJ1,1UK2,1UK3,1UK4,1UW7,1WOF,1Z1I,2A5A,2A5I,2A5K,2ACF,2AHM,2ALV,2AMD,2AMQ,2BX3,2BX4,2C3S,2D2D,2DUC,2FAV,2FE8,2FYG,2G9T,2GA6,2GDT,2GRI,2GT7,2GT8,2GTB,2GX4,2GZ7,2GZ8,2GZ9,2H2Z,2HOB,2HSX,2IDY,2JZF,2K7X,2K87,2KAF,2LIZ,2OP9,2OZK,2RNK,2V6N,2VJ1,2XYQ,2XYR,2XYV,2Z3C,2Z3D,2Z3E,2Z94,2Z9G,2Z9J,2Z9K,2Z9L,2ZU4,2ZU5,3D62,3E91,3E9S,3EA7,3EA8,3EBN,3IWM,3M3V,3MJ5,3R24,3SN8,3SNA,3SNB,3SNC,3SND,3SNE,3SZN,3TIT,3TIU,3TNS,3TNT,3V3M,3VB3,3VB4,3VB5,3VB6,3VB7,4MDS,4MM3,4OVZ,4OW0,5C8S,5C8T,5C8U,5F22,5N19,5N5O,5NFY,5TL6,5TL7,5Y3E,5Y3Q,6JYT,6LNQ,6LNY,6LO0,6NUR,6NUS,6W2A,6W79,6WCO,6XHL,6XHN,6XHO,6XMK,6XOA,7AKU,7C2K,7JOY

>  <Smiles>
Clc(cc1)ccc1-c(n(-c(cc1)cc(Cl)c1Cl)nc1-c(cc2)ccc2Br)c1-n1cncc1

$$$$
47919
Actelion Java MolfileCreator 2.0

  0  0  0  0  0  0              0 V3000
M  V30 BEGIN CTAB
M  V30 COUNTS 33 36 0 0 0
M  V30 BEGIN ATOM
M  V30 1 O 0.0 0.0 0.0 0
M  V30 2 C -0.0118 -1.4934 0.0 0
M  V30 3 N 1.2801 -2.2283 0.0 0
M  V30 4 C -1.3275 -2.2283 0.0 0
M  V30 5 C 1.2682 -3.7218 0.0 0
M  V30 6 C 2.5721 -1.4697 0.0 0
M  V30 7 O -1.4934 -3.7099 0.0 0
M  V30 8 C -2.7143 -1.6001 0.0 0
M  V30 9 C 2.5602 -4.4567 0.0 0
M  V30 10 C -0.0474 -4.4567 0.0 0
M  V30 11 C 2.5602 0.0474 0.0 0
M  V30 12 C 3.864 -2.2046 0.0 0
M  V30 13 C -2.9751 -4.0063 0.0 0
M  V30 14 C -3.7336 -2.7024 0.0 0
M  V30 15 C 2.5483 -5.9502 0.0 0
M  V30 16 C -0.0592 -5.9502 0.0 0
M  V30 17 C 1.2445 0.8178 0.0 0
M  V30 18 C 3.8522 0.8178 0.0 0
M  V30 19 O 3.8522 -3.6981 0.0 0
M  V30 20 N 5.156 -1.446 0.0 0
M  V30 21 C 1.2327 -6.685 0.0 0
M  V30 22 N 1.2327 2.335 0.0 0
M  V30 23 C 3.8403 2.335 0.0 0
M  V30 24 C 6.448 -2.1809 0.0 0
M  V30 25 C 1.2208 -8.1785 0.0 0
M  V30 26 C 2.5246 3.0936 0.0 0
M  V30 27 C 6.5902 -3.6625 0.0 0
M  V30 28 C 7.8111 -1.5527 0.0 0
M  V30 29 C -0.0948 -8.9134 0.0 0
M  V30 30 C 2.5128 -8.9134 0.0 0
M  V30 31 C 8.0481 -3.9589 0.0 0
M  V30 32 C 8.8067 -2.655 0.0 0
M  V30 33 C -0.1066 -10.4069 0.0 0
M  V30 END ATOM
M  V30 BEGIN BOND
M  V30 1 2 1 2
M  V30 2 1 2 3
M  V30 3 1 2 4
M  V30 4 1 3 5
M  V30 5 1 3 6
M  V30 6 1 4 7
M  V30 7 2 4 8
M  V30 8 2 5 9
M  V30 9 1 5 10
M  V30 10 1 6 11
M  V30 11 1 6 12
M  V30 12 1 7 13
M  V30 13 1 8 14
M  V30 14 1 9 15
M  V30 15 2 10 16
M  V30 16 2 11 17
M  V30 17 1 11 18
M  V30 18 2 12 19
M  V30 19 1 12 20
M  V30 20 2 15 21
M  V30 21 1 17 22
M  V30 22 2 18 23
M  V30 23 1 20 24
M  V30 24 1 21 25
M  V30 25 2 22 26
M  V30 26 1 24 27
M  V30 27 1 24 28
M  V30 28 1 25 29
M  V30 29 1 25 30
M  V30 30 1 27 31
M  V30 31 1 28 32
M  V30 32 1 29 33
M  V30 33 2 13 14
M  V30 34 1 16 21
M  V30 35 1 23 26
M  V30 36 1 31 32
M  V30 END BOND
M  V30 END CTAB
M  END
>  <Ligand InChI>
InChI=1S/C27H31N3O3/c1-3-19(2)20-12-14-23(15-13-20)30(27(32)24-11-7-17-33-24)25(21-8-6-16-28-18-21)26(31)29-22-9-4-5-10-22/h6-8,11-19,22,25H,3-5,9-10H2,1-2H3,(H,29,31)

>  <Ligand InChI Key>
KMPOAXYUGWTIIV-UHFFFAOYSA-N

>  <BindingDB MonomerID>
47919

>  <Target Name Assigned by Curator or DataSource>
3C-like proteinase (3CL-PRO)

>  <Target Source Organism According to Curator or DataSource>
Human SARS coronavirus

>  <IC50 (nM)>
2200

>  <PMID>
26878082

>  <Ligand HET ID in PDB>


>  <PDB ID(s) for Ligand-Target Complex>


>  <PubChem CID>
3196508

>  <PubChem SID>
252628217

>  <ChEMBL ID of Ligand>


>  <DrugBank ID of Ligand>


>  <ZINC ID of Ligand>
ZINC13025377

>  <PDB ID(s) of Target Chain>
1Q2W,1QZ8,1UJ1,1UK2,1UK3,1UK4,1UW7,1WOF,1Z1I,2A5A,2A5I,2A5K,2ACF,2AHM,2ALV,2AMD,2AMQ,2BX3,2BX4,2C3S,2D2D,2DUC,2FAV,2FE8,2FYG,2G9T,2GA6,2GDT,2GRI,2GT7,2GT8,2GTB,2GX4,2GZ7,2GZ8,2GZ9,2H2Z,2HOB,2HSX,2IDY,2JZF,2K7X,2K87,2KAF,2LIZ,2OP9,2OZK,2RNK,2V6N,2VJ1,2XYQ,2XYR,2XYV,2Z3C,2Z3D,2Z3E,2Z94,2Z9G,2Z9J,2Z9K,2Z9L,2ZU4,2ZU5,3D62,3E91,3E9S,3EA7,3EA8,3EBN,3IWM,3M3V,3MJ5,3R24,3SN8,3SNA,3SNB,3SNC,3SND,3SNE,3SZN,3TIT,3TIU,3TNS,3TNT,3V3M,3VB3,3VB4,3VB5,3VB6,3VB7,4MDS,4MM3,4OVZ,4OW0,5C8S,5C8T,5C8U,5F22,5N19,5N5O,5NFY,5TL6,5TL7,5Y3E,5Y3Q,6JYT,6LNQ,6LNY,6LO0,6NUR,6NUS,6W2A,6W79,6WCO,6XHL,6XHN,6XHO,6XMK,6XOA,7AKU,7C2K,7JOY

>  <Smiles>
CCC(C)c(cc1)ccc1N(C(C(NC1CCCC1)=O)c1cnccc1)C(c1ccco1)=O

$$$$
429329
Actelion Java MolfileCreator 2.0

  0  0  0  0  0  0              0 V3000
M  V30 BEGIN CTAB
M  V30 COUNTS 32 34 0 0 0
M  V30 BEGIN ATOM
M  V30 1 O 0.0 0.0 0.0 0
M  V30 2 C -1.2257 0.8957 0.0 0
M  V30 3 C -0.4714 -1.4142 0.0 0
M  V30 4 C -1.2375 2.4043 0.0 0
M  V30 5 C -2.4514 0.0235 0.0 0
M  V30 6 C -1.98 -1.4025 0.0 0
M  V30 7 O 0.0471 3.1585 0.0 0
M  V30 8 N -2.5457 3.1585 0.0 0
M  V30 9 C -3.8539 2.4278 0.0 0
M  V30 10 C -2.5575 4.6671 0.0 0 CFG=2
M  V30 11 C -3.8657 0.9428 0.0 0
M  V30 12 C -5.1621 3.1821 0.0 0
M  V30 13 C -3.8657 5.4214 0.0 0
M  V30 14 C -1.2728 5.4214 0.0 0
M  V30 15 C -5.1739 0.2121 0.0 0
M  V30 16 C -6.4704 2.4514 0.0 0
M  V30 17 C -3.8775 6.93 0.0 0
M  V30 18 C -5.1739 4.6907 0.0 0
M  V30 19 O -1.2846 6.93 0.0 0
M  V30 20 N 0.0117 4.6907 0.0 0
M  V30 21 C -6.4822 0.9664 0.0 0
M  V30 22 N -5.1857 7.6843 0.0 0
M  V30 23 C -6.4822 5.445 0.0 0
M  V30 24 C 1.2964 5.445 0.0 0
M  V30 25 C -7.7904 0.2357 0.0 0
M  V30 26 C -6.4939 6.9536 0.0 0
M  V30 27 C 2.581 6.1993 0.0 0
M  V30 28 C 0.5421 6.7532 0.0 0
M  V30 29 C 2.0271 4.1603 0.0 0
M  V30 30 C -9.0986 -0.495 0.0 0
M  V30 31 C -8.5447 1.5439 0.0 0
M  V30 32 C -7.0597 -1.0489 0.0 0
M  V30 END ATOM
M  V30 BEGIN BOND
M  V30 1 1 1 2
M  V30 2 1 1 3
M  V30 3 1 2 4
M  V30 4 2 2 5
M  V30 5 2 3 6
M  V30 6 2 4 7
M  V30 7 1 4 8
M  V30 8 1 8 9
M  V30 9 1 10 8 CFG=3
M  V30 10 2 9 11
M  V30 11 1 9 12
M  V30 12 1 10 13
M  V30 13 1 10 14
M  V30 14 1 11 15
M  V30 15 2 12 16
M  V30 16 2 13 17
M  V30 17 1 13 18
M  V30 18 2 14 19
M  V30 19 1 14 20
M  V30 20 2 15 21
M  V30 21 1 17 22
M  V30 22 2 18 23
M  V30 23 1 20 24
M  V30 24 1 21 25
M  V30 25 2 22 26
M  V30 26 1 24 27
M  V30 27 1 24 28
M  V30 28 1 24 29
M  V30 29 1 25 30
M  V30 30 1 25 31
M  V30 31 1 25 32
M  V30 32 1 5 6
M  V30 33 1 16 21
M  V30 34 1 23 26
M  V30 END BOND
M  V30 BEGIN COLLECTION
M  V30 MDLV30/STEABS ATOMS=(1 10)
M  V30 END COLLECTION
M  V30 END CTAB
M  END
>  <Ligand InChI>
InChI=1S/C26H31N3O3/c1-25(2,3)19-11-13-20(14-12-19)29(24(31)21-10-8-16-32-21)22(18-9-7-15-27-17-18)23(30)28-26(4,5)6/h7-17,22H,1-6H3,(H,28,30)/t22-/m1/s1

>  <Ligand InChI Key>
JXGIYKRRPGCLFV-JOCHJYFZSA-N

>  <BindingDB MonomerID>
429329

>  <Target Name Assigned by Curator or DataSource>
Papain-like protease (PLpro)

>  <Target Source Organism According to Curator or DataSource>


>  <IC50 (nM)>
1500

>  <PMID>
26878082

>  <Ligand HET ID in PDB>
0EN

>  <PDB ID(s) for Ligand-Target Complex>
3V3M

>  <PubChem CID>


>  <PubChem SID>


>  <ChEMBL ID of Ligand>


>  <DrugBank ID of Ligand>


>  <ZINC ID of Ligand>


>  <PDB ID(s) of Target Chain>
1Q2W,1QZ8,1UJ1,1UK2,1UK3,1UK4,1UW7,1WOF,1Z1I,2A5A,2A5I,2A5K,2ACF,2AHM,2ALV,2AMD,2AMQ,2BX3,2BX4,2C3S,2D2D,2DUC,2FAV,2FE8,2FYG,2G9T,2GA6,2GDT,2GRI,2GT7,2GT8,2GTB,2GX4,2GZ7,2GZ8,2GZ9,2H2Z,2HOB,2HSX,2IDY,2JZF,2K7X,2K87,2KAF,2LIZ,2OP9,2RNK,2V6N,2VJ1,2XYQ,2XYR,2XYV,2Z3C,2Z3D,2Z3E,2Z94,2Z9G,2Z9J,2Z9K,2Z9L,2ZU4,2ZU5,3D62,3E91,3E9S,3EA7,3EA8,3EBN,3IWM,3M3V,3MJ5,3R24,3SN8,3SNA,3SNB,3SNC,3SND,3SNE,3SZN,3TIT,3TIU,3TNS,3TNT,3V3M,3VB3,3VB4,3VB5,3VB6,3VB7,4MDS,4MM3,4OVZ,4OW0,5C8S,5C8T,5C8U,5F22,5N19,5N5O,5NFY,5TL6,5TL7,5Y3E,5Y3Q,6LNQ,6LNY,6LO0,6NUR,6NUS,6W2A,6W79,6WCO,6XHL,6XHN,6XHO,6XMK,6XOA,7AKU,7JOY

>  <Smiles>
CC(C)(C)c(cc1)ccc1N([C@@H](C(NC(C)(C)C)=O)c1cnccc1)C(c1ccco1)=O

$$$$
429343
Actelion Java MolfileCreator 2.0

  0  0  0  0  0  0              0 V3000
M  V30 BEGIN CTAB
M  V30 COUNTS 39 42 0 0 0
M  V30 BEGIN ATOM
M  V30 1 O 0.0 0.0 0.0 0
M  V30 2 C -1.0172 -1.1 0.0 0
M  V30 3 N -2.4957 -0.7806 0.0 0
M  V30 4 C -0.5677 -2.5193 0.0 0 CFG=2
M  V30 5 C -2.9688 0.6623 0.0 0
M  V30 6 N -1.5849 -3.6193 0.0 0
M  V30 7 C 0.8871 -2.815 0.0 0
M  V30 8 C -1.5494 1.1354 0.0 0
M  V30 9 C -4.4118 0.2129 0.0 0
M  V30 10 C -3.4419 2.1053 0.0 0
M  V30 11 C -3.0634 -3.3 0.0 0
M  V30 12 C -1.1354 -5.0387 0.0 0
M  V30 13 C 1.9871 -1.7978 0.0 0
M  V30 14 C 1.4903 -4.1752 0.0 0
M  V30 15 C -3.5365 -1.8569 0.0 0
M  V30 16 C -4.0806 -4.4 0.0 0
M  V30 17 O -2.1526 -6.1387 0.0 0
M  V30 18 C 0.3193 -5.3344 0.0 0
M  V30 19 N 3.2763 -2.543 0.0 0
M  V30 20 C 2.9688 -4.0096 0.0 0
M  V30 21 C -5.015 -1.5376 0.0 0
M  V30 22 C -5.5591 -4.0806 0.0 0
M  V30 23 N 0.7688 -6.7537 0.0 0
M  V30 24 C 4.6365 -1.9161 0.0 0
M  V30 25 C -6.0322 -2.6376 0.0 0
M  V30 26 N -0.1301 -7.9602 0.0 0
M  V30 27 C 2.1881 -7.2032 0.0 0
M  V30 28 N -7.5107 -2.3182 0.0 0
M  V30 29 N 0.7451 -9.1667 0.0 0
M  V30 30 C 2.1763 -8.6935 0.0 0
M  V30 31 C 3.4774 -6.4344 0.0 0
M  V30 32 C -8.5279 -3.4182 0.0 0
M  V30 33 C 3.4656 -9.4387 0.0 0
M  V30 34 C 4.7666 -7.1795 0.0 0
M  V30 35 O -8.0785 -4.8376 0.0 0
M  V30 36 C -10.0064 -3.0989 0.0 0
M  V30 37 C 4.7548 -8.6699 0.0 0
M  V30 38 C -11.0236 -4.1989 0.0 0
M  V30 39 C -10.4796 -1.6559 0.0 0
M  V30 END ATOM
M  V30 BEGIN BOND
M  V30 1 2 1 2
M  V30 2 1 2 3
M  V30 3 1 2 4
M  V30 4 1 3 5
M  V30 5 1 4 6 CFG=1
M  V30 6 1 4 7
M  V30 7 1 5 8
M  V30 8 1 5 9
M  V30 9 1 5 10
M  V30 10 1 6 11
M  V30 11 1 6 12
M  V30 12 2 7 13
M  V30 13 1 7 14
M  V30 14 2 11 15
M  V30 15 1 11 16
M  V30 16 2 12 17
M  V30 17 1 12 18
M  V30 18 1 13 19
M  V30 19 2 14 20
M  V30 20 1 15 21
M  V30 21 2 16 22
M  V30 22 1 18 23
M  V30 23 1 19 24
M  V30 24 2 21 25
M  V30 25 1 23 26
M  V30 26 1 23 27
M  V30 27 1 25 28
M  V30 28 2 26 29
M  V30 29 2 27 30
M  V30 30 1 27 31
M  V30 31 1 28 32
M  V30 32 1 30 33
M  V30 33 2 31 34
M  V30 34 2 32 35
M  V30 35 1 32 36
M  V30 36 2 33 37
M  V30 37 1 36 38
M  V30 38 1 36 39
M  V30 39 1 19 20
M  V30 40 1 22 25
M  V30 41 1 29 30
M  V30 42 1 34 37
M  V30 END BOND
M  V30 BEGIN COLLECTION
M  V30 MDLV30/STERAC1 ATOMS=(1 4)
M  V30 END COLLECTION
M  V30 END CTAB
M  END
>  <Ligand InChI>
InChI=1/C29H35N7O3/c1-19(2)27(38)30-21-11-13-22(14-12-21)36(25(37)18-35-24-10-8-7-9-23(24)32-33-35)26(20-15-16-34(6)17-20)28(39)31-29(3,4)5/h7-17,19,26H,18H2,1-6H3,(H,30,38)(H,31,39)

>  <Ligand InChI Key>
WPRVPGYUYHNTCD-UHFFFAOYNA-N

>  <BindingDB MonomerID>
429343

>  <Target Name Assigned by Curator or DataSource>
3C-like proteinase (3CL-PRO)

>  <Target Source Organism According to Curator or DataSource>
Human SARS coronavirus

>  <IC50 (nM)>
4100

>  <PMID>
26878082

>  <Ligand HET ID in PDB>


>  <PDB ID(s) for Ligand-Target Complex>


>  <PubChem CID>


>  <PubChem SID>


>  <ChEMBL ID of Ligand>


>  <DrugBank ID of Ligand>


>  <ZINC ID of Ligand>


>  <PDB ID(s) of Target Chain>
1Q2W,1QZ8,1UJ1,1UK2,1UK3,1UK4,1UW7,1WOF,1Z1I,2A5A,2A5I,2A5K,2ACF,2AHM,2ALV,2AMD,2AMQ,2BX3,2BX4,2C3S,2D2D,2DUC,2FAV,2FE8,2FYG,2G9T,2GA6,2GDT,2GRI,2GT7,2GT8,2GTB,2GX4,2GZ7,2GZ8,2GZ9,2H2Z,2HOB,2HSX,2IDY,2JZF,2K7X,2K87,2KAF,2LIZ,2OP9,2OZK,2RNK,2V6N,2VJ1,2XYQ,2XYR,2XYV,2Z3C,2Z3D,2Z3E,2Z94,2Z9G,2Z9J,2Z9K,2Z9L,2ZU4,2ZU5,3D62,3E91,3E9S,3EA7,3EA8,3EBN,3IWM,3M3V,3MJ5,3R24,3SN8,3SNA,3SNB,3SNC,3SND,3SNE,3SZN,3TIT,3TIU,3TNS,3TNT,3V3M,3VB3,3VB4,3VB5,3VB6,3VB7,4MDS,4MM3,4OVZ,4OW0,5C8S,5C8T,5C8U,5F22,5N19,5N5O,5NFY,5TL6,5TL7,5Y3E,5Y3Q,6JYT,6LNQ,6LNY,6LO0,6NUR,6NUS,6W2A,6W79,6WCO,6XHL,6XHN,6XHO,6XMK,6XOA,7AKU,7C2K,7JOY

>  <Smiles>
CC(C)C(Nc(cc1)ccc1N(C(C(NC(C)(C)C)=O)c1cn(C)cc1)C(Cn1nnc2c1cccc2)=O)=O

$$$$
429345
Actelion Java MolfileCreator 2.0

  0  0  0  0  0  0              0 V3000
M  V30 BEGIN CTAB
M  V30 COUNTS 40 44 0 0 0
M  V30 BEGIN ATOM
M  V30 1 O 0.0 0.0 0.0 0
M  V30 2 C 1.4553 -0.2957 0.0 0
M  V30 3 N 1.9049 -1.7156 0.0 0
M  V30 4 C 2.4491 0.8282 0.0 0
M  V30 5 C 0.8873 -2.8159 0.0 0
M  V30 6 C 2.3545 2.3426 0.0 0
M  V30 7 C 3.9399 0.9228 0.0 0
M  V30 8 C -0.5915 -2.4964 0.0 0
M  V30 9 C 1.3369 -4.2357 0.0 0
M  V30 10 C 3.8453 2.4373 0.0 0
M  V30 11 C -1.6091 -3.5968 0.0 0
M  V30 12 C 0.3194 -5.3361 0.0 0
M  V30 13 C -1.1595 -5.0166 0.0 0
M  V30 14 N -2.177 -6.117 0.0 0
M  V30 15 C -1.7274 -7.5368 0.0 0
M  V30 16 C -3.656 -5.7975 0.0 0 CFG=2
M  V30 17 O -0.2721 -7.8326 0.0 0
M  V30 18 C -2.7449 -8.6371 0.0 0
M  V30 19 C -4.6735 -6.8979 0.0 0
M  V30 20 C -4.1292 -4.354 0.0 0
M  V30 21 N -2.2953 -10.0569 0.0 0
M  V30 22 C -4.3777 -8.3532 0.0 0
M  V30 23 C -6.1761 -6.7322 0.0 0
M  V30 24 O -3.1354 -3.23 0.0 0
M  V30 25 N -5.6082 -4.0346 0.0 0
M  V30 26 N -3.1945 -11.2638 0.0 0
M  V30 27 C -0.8755 -10.5065 0.0 0
M  V30 28 N -5.691 -9.0986 0.0 0
M  V30 29 C -6.8032 -8.0929 0.0 0
M  V30 30 C -6.0815 -2.5911 0.0 0
M  V30 31 N -2.319 -12.4706 0.0 0
M  V30 32 C -0.8873 -11.9973 0.0 0
M  V30 33 C 0.4141 -9.7375 0.0 0
M  V30 34 C -5.8567 -10.5775 0.0 0
M  V30 35 C -4.6617 -2.1178 0.0 0
M  V30 36 C -7.5249 -3.0407 0.0 0
M  V30 37 C -6.5547 -1.1476 0.0 0
M  V30 38 C 0.4022 -12.7427 0.0 0
M  V30 39 C 1.7037 -10.4829 0.0 0
M  V30 40 C 1.6919 -11.9737 0.0 0
M  V30 END ATOM
M  V30 BEGIN BOND
M  V30 1 2 1 2
M  V30 2 1 2 3
M  V30 3 1 2 4
M  V30 4 1 3 5
M  V30 5 1 4 6
M  V30 6 1 4 7
M  V30 7 2 5 8
M  V30 8 1 5 9
M  V30 9 1 6 10
M  V30 10 1 8 11
M  V30 11 2 9 12
M  V30 12 2 11 13
M  V30 13 1 13 14
M  V30 14 1 14 15
M  V30 15 1 16 14 CFG=3
M  V30 16 2 15 17
M  V30 17 1 15 18
M  V30 18 1 16 19
M  V30 19 1 16 20
M  V30 20 1 18 21
M  V30 21 2 19 22
M  V30 22 1 19 23
M  V30 23 2 20 24
M  V30 24 1 20 25
M  V30 25 1 21 26
M  V30 26 1 21 27
M  V30 27 1 22 28
M  V30 28 2 23 29
M  V30 29 1 25 30
M  V30 30 2 26 31
M  V30 31 2 27 32
M  V30 32 1 27 33
M  V30 33 1 28 34
M  V30 34 1 30 35
M  V30 35 1 30 36
M  V30 36 1 30 37
M  V30 37 1 32 38
M  V30 38 2 33 39
M  V30 39 2 38 40
M  V30 40 1 7 10
M  V30 41 1 12 13
M  V30 42 1 28 29
M  V30 43 1 31 32
M  V30 44 1 39 40
M  V30 END BOND
M  V30 BEGIN COLLECTION
M  V30 MDLV30/STERAC1 ATOMS=(1 16)
M  V30 END COLLECTION
M  V30 END CTAB
M  END
>  <Ligand InChI>
InChI=1/C30H35N7O3/c1-30(2,3)32-29(40)27(21-16-17-35(4)18-21)37(26(38)19-36-25-11-6-5-10-24(25)33-34-36)23-14-12-22(13-15-23)31-28(39)20-8-7-9-20/h5-6,10-18,20,27H,7-9,19H2,1-4H3,(H,31,39)(H,32,40)

>  <Ligand InChI Key>
SKZLYOKRMPXIMT-UHFFFAOYNA-N

>  <BindingDB MonomerID>
429345

>  <Target Name Assigned by Curator or DataSource>
3C-like proteinase (3CL-PRO)

>  <Target Source Organism According to Curator or DataSource>
Human SARS coronavirus

>  <IC50 (nM)>
3800

>  <PMID>
26878082

>  <Ligand HET ID in PDB>


>  <PDB ID(s) for Ligand-Target Complex>


>  <PubChem CID>


>  <PubChem SID>


>  <ChEMBL ID of Ligand>


>  <DrugBank ID of Ligand>


>  <ZINC ID of Ligand>


>  <PDB ID(s) of Target Chain>
1Q2W,1QZ8,1UJ1,1UK2,1UK3,1UK4,1UW7,1WOF,1Z1I,2A5A,2A5I,2A5K,2ACF,2AHM,2ALV,2AMD,2AMQ,2BX3,2BX4,2C3S,2D2D,2DUC,2FAV,2FE8,2FYG,2G9T,2GA6,2GDT,2GRI,2GT7,2GT8,2GTB,2GX4,2GZ7,2GZ8,2GZ9,2H2Z,2HOB,2HSX,2IDY,2JZF,2K7X,2K87,2KAF,2LIZ,2OP9,2OZK,2RNK,2V6N,2VJ1,2XYQ,2XYR,2XYV,2Z3C,2Z3D,2Z3E,2Z94,2Z9G,2Z9J,2Z9K,2Z9L,2ZU4,2ZU5,3D62,3E91,3E9S,3EA7,3EA8,3EBN,3IWM,3M3V,3MJ5,3R24,3SN8,3SNA,3SNB,3SNC,3SND,3SNE,3SZN,3TIT,3TIU,3TNS,3TNT,3V3M,3VB3,3VB4,3VB5,3VB6,3VB7,4MDS,4MM3,4OVZ,4OW0,5C8S,5C8T,5C8U,5F22,5N19,5N5O,5NFY,5TL6,5TL7,5Y3E,5Y3Q,6JYT,6LNQ,6LNY,6LO0,6NUR,6NUS,6W2A,6W79,6WCO,6XHL,6XHN,6XHO,6XMK,6XOA,7AKU,7C2K,7JOY

>  <Smiles>
CC(C)(C)NC(C(c1cn(C)cc1)N(C(Cn1nnc2c1cccc2)=O)c(cc1)ccc1NC(C1CCC1)=O)=O

$$$$
429346
Actelion Java MolfileCreator 2.0

  0  0  0  0  0  0              0 V3000
M  V30 BEGIN CTAB
M  V30 COUNTS 31 34 0 0 0
M  V30 BEGIN ATOM
M  V30 1 O 0.0 0.0 0.0 0
M  V30 2 C 0.9941 1.1243 0.0 0
M  V30 3 N 0.5207 2.5681 0.0 0
M  V30 4 C 2.4498 0.8284 0.0 0
M  V30 5 C -0.9586 2.8877 0.0 0
M  V30 6 C 1.5148 3.6924 0.0 0
M  V30 7 N 2.8995 -0.5917 0.0 0
M  V30 8 C -1.432 4.3315 0.0 0
M  V30 9 C -1.9764 1.787 0.0 0
M  V30 10 C 2.9705 3.3966 0.0 0
M  V30 11 N 2.0001 -1.7989 0.0 0
M  V30 12 C 4.3197 -1.0414 0.0 0
M  V30 13 C -2.9113 4.6511 0.0 0
M  V30 14 C -3.4557 2.1066 0.0 0
M  V30 15 C 4.0712 4.4144 0.0 0
M  V30 16 C 3.5741 2.0356 0.0 0
M  V30 17 N 2.8758 -3.006 0.0 0
M  V30 18 C 4.3079 -2.5326 0.0 0
M  V30 19 C 5.6097 -0.2722 0.0 0
M  V30 20 C -3.9291 3.5504 0.0 0
M  V30 21 N 5.3612 3.6688 0.0 0
M  V30 22 C 5.0535 2.2012 0.0 0
M  V30 23 C 5.5979 -3.2782 0.0 0
M  V30 24 C 6.8997 -1.0178 0.0 0
M  V30 25 N -5.4085 3.87 0.0 0
M  V30 26 C 6.7222 4.296 0.0 0
M  V30 27 C 6.8879 -2.509 0.0 0
M  V30 28 C -6.4263 2.7693 0.0 0
M  V30 29 O -5.9766 1.3491 0.0 0
M  V30 30 C -7.9057 3.0889 0.0 0
M  V30 31 C -8.9235 1.9882 0.0 0
M  V30 END ATOM
M  V30 BEGIN BOND
M  V30 1 2 1 2
M  V30 2 1 2 3
M  V30 3 1 2 4
M  V30 4 1 3 5
M  V30 5 1 3 6
M  V30 6 1 4 7
M  V30 7 2 5 8
M  V30 8 1 5 9
M  V30 9 1 6 10
M  V30 10 1 7 11
M  V30 11 1 7 12
M  V30 12 1 8 13
M  V30 13 2 9 14
M  V30 14 2 10 15
M  V30 15 1 10 16
M  V30 16 2 11 17
M  V30 17 2 12 18
M  V30 18 1 12 19
M  V30 19 2 13 20
M  V30 20 1 15 21
M  V30 21 2 16 22
M  V30 22 1 18 23
M  V30 23 2 19 24
M  V30 24 1 20 25
M  V30 25 1 21 26
M  V30 26 2 23 27
M  V30 27 1 25 28
M  V30 28 2 28 29
M  V30 29 1 28 30
M  V30 30 1 30 31
M  V30 31 1 14 20
M  V30 32 1 17 18
M  V30 33 1 21 22
M  V30 34 1 24 27
M  V30 END BOND
M  V30 END CTAB
M  END
>  <Ligand InChI>
InChI=1S/C23H24N6O2/c1-3-22(30)24-18-8-10-19(11-9-18)28(15-17-12-13-27(2)14-17)23(31)16-29-21-7-5-4-6-20(21)25-26-29/h4-14H,3,15-16H2,1-2H3,(H,24,30)

>  <Ligand InChI Key>
NVZHSDUILOXRDB-UHFFFAOYSA-N

>  <BindingDB MonomerID>
429346

>  <Target Name Assigned by Curator or DataSource>
3C-like proteinase (3CL-PRO)

>  <Target Source Organism According to Curator or DataSource>
Human SARS coronavirus

>  <IC50 (nM)>
2900

>  <PMID>
26878082

>  <Ligand HET ID in PDB>


>  <PDB ID(s) for Ligand-Target Complex>


>  <PubChem CID>


>  <PubChem SID>


>  <ChEMBL ID of Ligand>


>  <DrugBank ID of Ligand>


>  <ZINC ID of Ligand>


>  <PDB ID(s) of Target Chain>
1Q2W,1QZ8,1UJ1,1UK2,1UK3,1UK4,1UW7,1WOF,1Z1I,2A5A,2A5I,2A5K,2ACF,2AHM,2ALV,2AMD,2AMQ,2BX3,2BX4,2C3S,2D2D,2DUC,2FAV,2FE8,2FYG,2G9T,2GA6,2GDT,2GRI,2GT7,2GT8,2GTB,2GX4,2GZ7,2GZ8,2GZ9,2H2Z,2HOB,2HSX,2IDY,2JZF,2K7X,2K87,2KAF,2LIZ,2OP9,2OZK,2RNK,2V6N,2VJ1,2XYQ,2XYR,2XYV,2Z3C,2Z3D,2Z3E,2Z94,2Z9G,2Z9J,2Z9K,2Z9L,2ZU4,2ZU5,3D62,3E91,3E9S,3EA7,3EA8,3EBN,3IWM,3M3V,3MJ5,3R24,3SN8,3SNA,3SNB,3SNC,3SND,3SNE,3SZN,3TIT,3TIU,3TNS,3TNT,3V3M,3VB3,3VB4,3VB5,3VB6,3VB7,4MDS,4MM3,4OVZ,4OW0,5C8S,5C8T,5C8U,5F22,5N19,5N5O,5NFY,5TL6,5TL7,5Y3E,5Y3Q,6JYT,6LNQ,6LNY,6LO0,6NUR,6NUS,6W2A,6W79,6WCO,6XHL,6XHN,6XHO,6XMK,6XOA,7AKU,7C2K,7JOY

>  <Smiles>
CCC(Nc(cc1)ccc1N(Cc1cn(C)cc1)C(Cn1nnc2c1cccc2)=O)=O

$$$$
429347
Actelion Java MolfileCreator 2.0

  0  0  0  0  0  0              0 V3000
M  V30 BEGIN CTAB
M  V30 COUNTS 32 35 0 0 0
M  V30 BEGIN ATOM
M  V30 1 O 0.0 0.0 0.0 0
M  V30 2 C -0.4747 1.4479 0.0 0
M  V30 3 N 0.5222 2.5754 0.0 0
M  V30 4 C -1.9583 1.7684 0.0 0
M  V30 5 C 1.982 2.2787 0.0 0
M  V30 6 C -2.979 0.6646 0.0 0
M  V30 7 C -2.433 3.2163 0.0 0
M  V30 8 C 2.979 3.4062 0.0 0
M  V30 9 C 2.433 0.8545 0.0 0
M  V30 10 C 4.4388 3.1095 0.0 0
M  V30 11 C 3.8928 0.5578 0.0 0
M  V30 12 C 4.8898 1.6853 0.0 0
M  V30 13 N 6.3496 1.3886 0.0 0
M  V30 14 C 6.8006 -0.0356 0.0 0
M  V30 15 C 7.3466 2.5161 0.0 0
M  V30 16 O 5.7799 -1.1393 0.0 0
M  V30 17 C 8.2605 -0.3323 0.0 0
M  V30 18 C 8.8064 2.2194 0.0 0
M  V30 19 N 8.7115 -1.7565 0.0 0
M  V30 20 C 9.9102 3.2401 0.0 0
M  V30 21 C 9.4117 0.8545 0.0 0
M  V30 22 N 7.8095 -2.9671 0.0 0
M  V30 23 C 10.1357 -2.2075 0.0 0
M  V30 24 N 11.2039 2.4924 0.0 0
M  V30 25 C 10.8953 1.0206 0.0 0
M  V30 26 N 8.6877 -4.1777 0.0 0
M  V30 27 C 10.1238 -3.7029 0.0 0
M  V30 28 C 11.4294 -1.436 0.0 0
M  V30 29 C 12.5688 3.1214 0.0 0
M  V30 30 C 11.4175 -4.4507 0.0 0
M  V30 31 C 12.7231 -2.1838 0.0 0
M  V30 32 C 12.7112 -3.6792 0.0 0
M  V30 END ATOM
M  V30 BEGIN BOND
M  V30 1 2 1 2
M  V30 2 1 2 3
M  V30 3 1 2 4
M  V30 4 1 3 5
M  V30 5 1 4 6
M  V30 6 1 4 7
M  V30 7 2 5 8
M  V30 8 1 5 9
M  V30 9 1 8 10
M  V30 10 2 9 11
M  V30 11 2 10 12
M  V30 12 1 12 13
M  V30 13 1 13 14
M  V30 14 1 13 15
M  V30 15 2 14 16
M  V30 16 1 14 17
M  V30 17 1 15 18
M  V30 18 1 17 19
M  V30 19 2 18 20
M  V30 20 1 18 21
M  V30 21 1 19 22
M  V30 22 1 19 23
M  V30 23 1 20 24
M  V30 24 2 21 25
M  V30 25 2 22 26
M  V30 26 2 23 27
M  V30 27 1 23 28
M  V30 28 1 24 29
M  V30 29 1 27 30
M  V30 30 2 28 31
M  V30 31 2 30 32
M  V30 32 1 11 12
M  V30 33 1 24 25
M  V30 34 1 26 27
M  V30 35 1 31 32
M  V30 END BOND
M  V30 END CTAB
M  END
>  <Ligand InChI>
InChI=1S/C24H26N6O2/c1-17(2)24(32)25-19-8-10-20(11-9-19)29(15-18-12-13-28(3)14-18)23(31)16-30-22-7-5-4-6-21(22)26-27-30/h4-14,17H,15-16H2,1-3H3,(H,25,32)

>  <Ligand InChI Key>
VJOKGSHLVXBTMJ-UHFFFAOYSA-N

>  <BindingDB MonomerID>
429347

>  <Target Name Assigned by Curator or DataSource>
3C-like proteinase (3CL-PRO)

>  <Target Source Organism According to Curator or DataSource>
Human SARS coronavirus

>  <IC50 (nM)>
3600

>  <PMID>
26878082

>  <Ligand HET ID in PDB>


>  <PDB ID(s) for Ligand-Target Complex>


>  <PubChem CID>


>  <PubChem SID>


>  <ChEMBL ID of Ligand>


>  <DrugBank ID of Ligand>


>  <ZINC ID of Ligand>


>  <PDB ID(s) of Target Chain>
1Q2W,1QZ8,1UJ1,1UK2,1UK3,1UK4,1UW7,1WOF,1Z1I,2A5A,2A5I,2A5K,2ACF,2AHM,2ALV,2AMD,2AMQ,2BX3,2BX4,2C3S,2D2D,2DUC,2FAV,2FE8,2FYG,2G9T,2GA6,2GDT,2GRI,2GT7,2GT8,2GTB,2GX4,2GZ7,2GZ8,2GZ9,2H2Z,2HOB,2HSX,2IDY,2JZF,2K7X,2K87,2KAF,2LIZ,2OP9,2OZK,2RNK,2V6N,2VJ1,2XYQ,2XYR,2XYV,2Z3C,2Z3D,2Z3E,2Z94,2Z9G,2Z9J,2Z9K,2Z9L,2ZU4,2ZU5,3D62,3E91,3E9S,3EA7,3EA8,3EBN,3IWM,3M3V,3MJ5,3R24,3SN8,3SNA,3SNB,3SNC,3SND,3SNE,3SZN,3TIT,3TIU,3TNS,3TNT,3V3M,3VB3,3VB4,3VB5,3VB6,3VB7,4MDS,4MM3,4OVZ,4OW0,5C8S,5C8T,5C8U,5F22,5N19,5N5O,5NFY,5TL6,5TL7,5Y3E,5Y3Q,6JYT,6LNQ,6LNY,6LO0,6NUR,6NUS,6W2A,6W79,6WCO,6XHL,6XHN,6XHO,6XMK,6XOA,7AKU,7C2K,7JOY

>  <Smiles>
CC(C)C(Nc(cc1)ccc1N(Cc1cn(C)cc1)C(Cn1nnc2c1cccc2)=O)=O

$$$$
429348
Actelion Java MolfileCreator 2.0

  0  0  0  0  0  0              0 V3000
M  V30 BEGIN CTAB
M  V30 COUNTS 32 36 0 0 0
M  V30 BEGIN ATOM
M  V30 1 O 0.0 0.0 0.0 0
M  V30 2 C 1.4544 -0.2956 0.0 0
M  V30 3 N 1.9037 -1.7145 0.0 0
M  V30 4 C 2.4476 0.8277 0.0 0
M  V30 5 C 0.8868 -2.8142 0.0 0
M  V30 6 C 2.7433 2.3057 0.0 0
M  V30 7 C 3.8666 1.3007 0.0 0
M  V30 8 C -0.5912 -2.4949 0.0 0
M  V30 9 C 1.3361 -4.2331 0.0 0
M  V30 10 C -1.6081 -3.5946 0.0 0
M  V30 11 C 0.3192 -5.3328 0.0 0
M  V30 12 C -1.1588 -5.0136 0.0 0
M  V30 13 N -2.1757 -6.1133 0.0 0
M  V30 14 C -1.7263 -7.5322 0.0 0
M  V30 15 C -3.6537 -5.794 0.0 0
M  V30 16 O -0.2719 -7.8278 0.0 0
M  V30 17 C -2.7433 -8.6319 0.0 0
M  V30 18 C -4.1267 -4.3514 0.0 0
M  V30 19 N -2.2939 -10.0508 0.0 0
M  V30 20 C -5.5693 -3.8784 0.0 0
M  V30 21 C -3.2517 -3.1216 0.0 0
M  V30 22 N -3.1926 -11.257 0.0 0
M  V30 23 C -0.875 -10.5002 0.0 0
M  V30 24 N -5.5812 -2.3649 0.0 0
M  V30 25 C -4.1504 -1.8919 0.0 0
M  V30 26 N -2.3176 -12.4631 0.0 0
M  V30 27 C -0.8868 -11.9901 0.0 0
M  V30 28 C 0.4138 -9.7434 0.0 0
M  V30 29 C -6.8109 -1.4662 0.0 0
M  V30 30 C 0.402 -12.735 0.0 0
M  V30 31 C 1.7027 -10.4765 0.0 0
M  V30 32 C 1.6909 -11.9782 0.0 0
M  V30 END ATOM
M  V30 BEGIN BOND
M  V30 1 2 1 2
M  V30 2 1 2 3
M  V30 3 1 2 4
M  V30 4 1 3 5
M  V30 5 1 4 6
M  V30 6 1 4 7
M  V30 7 2 5 8
M  V30 8 1 5 9
M  V30 9 1 8 10
M  V30 10 2 9 11
M  V30 11 2 10 12
M  V30 12 1 12 13
M  V30 13 1 13 14
M  V30 14 1 13 15
M  V30 15 2 14 16
M  V30 16 1 14 17
M  V30 17 1 15 18
M  V30 18 1 17 19
M  V30 19 2 18 20
M  V30 20 1 18 21
M  V30 21 1 19 22
M  V30 22 1 19 23
M  V30 23 1 20 24
M  V30 24 2 21 25
M  V30 25 2 22 26
M  V30 26 2 23 27
M  V30 27 1 23 28
M  V30 28 1 24 29
M  V30 29 1 27 30
M  V30 30 2 28 31
M  V30 31 2 30 32
M  V30 32 1 6 7
M  V30 33 1 11 12
M  V30 34 1 24 25
M  V30 35 1 26 27
M  V30 36 1 31 32
M  V30 END BOND
M  V30 END CTAB
M  END
>  <Ligand InChI>
InChI=1S/C24H24N6O2/c1-28-13-12-17(14-28)15-29(20-10-8-19(9-11-20)25-24(32)18-6-7-18)23(31)16-30-22-5-3-2-4-21(22)26-27-30/h2-5,8-14,18H,6-7,15-16H2,1H3,(H,25,32)

>  <Ligand InChI Key>
DUFQFRYUZLXBJG-UHFFFAOYSA-N

>  <BindingDB MonomerID>
429348

>  <Target Name Assigned by Curator or DataSource>
3C-like proteinase (3CL-PRO)

>  <Target Source Organism According to Curator or DataSource>
Human SARS coronavirus

>  <IC50 (nM)>
4100

>  <PMID>
26878082

>  <Ligand HET ID in PDB>


>  <PDB ID(s) for Ligand-Target Complex>


>  <PubChem CID>


>  <PubChem SID>


>  <ChEMBL ID of Ligand>


>  <DrugBank ID of Ligand>


>  <ZINC ID of Ligand>


>  <PDB ID(s) of Target Chain>
1Q2W,1QZ8,1UJ1,1UK2,1UK3,1UK4,1UW7,1WOF,1Z1I,2A5A,2A5I,2A5K,2ACF,2AHM,2ALV,2AMD,2AMQ,2BX3,2BX4,2C3S,2D2D,2DUC,2FAV,2FE8,2FYG,2G9T,2GA6,2GDT,2GRI,2GT7,2GT8,2GTB,2GX4,2GZ7,2GZ8,2GZ9,2H2Z,2HOB,2HSX,2IDY,2JZF,2K7X,2K87,2KAF,2LIZ,2OP9,2OZK,2RNK,2V6N,2VJ1,2XYQ,2XYR,2XYV,2Z3C,2Z3D,2Z3E,2Z94,2Z9G,2Z9J,2Z9K,2Z9L,2ZU4,2ZU5,3D62,3E91,3E9S,3EA7,3EA8,3EBN,3IWM,3M3V,3MJ5,3R24,3SN8,3SNA,3SNB,3SNC,3SND,3SNE,3SZN,3TIT,3TIU,3TNS,3TNT,3V3M,3VB3,3VB4,3VB5,3VB6,3VB7,4MDS,4MM3,4OVZ,4OW0,5C8S,5C8T,5C8U,5F22,5N19,5N5O,5NFY,5TL6,5TL7,5Y3E,5Y3Q,6JYT,6LNQ,6LNY,6LO0,6NUR,6NUS,6W2A,6W79,6WCO,6XHL,6XHN,6XHO,6XMK,6XOA,7AKU,7C2K,7JOY

>  <Smiles>
Cn1cc(CN(C(Cn2nnc3c2cccc3)=O)c(cc2)ccc2NC(C2CC2)=O)cc1

$$$$
429350
Actelion Java MolfileCreator 2.0

  0  0  0  0  0  0              0 V3000
M  V30 BEGIN CTAB
M  V30 COUNTS 32 36 0 0 0
M  V30 BEGIN ATOM
M  V30 1 O 0.0 0.0 0.0 0
M  V30 2 C -1.4756 0.3187 0.0 0
M  V30 3 N -1.9478 1.7589 0.0 0
M  V30 4 C -2.4908 -0.7791 0.0 0
M  V30 5 C -0.9562 2.8804 0.0 0
M  V30 6 C -3.4234 2.0776 0.0 0
M  V30 7 N -2.0422 -2.1957 0.0 0
M  V30 8 C -1.4284 4.3206 0.0 0
M  V30 9 C 0.4958 2.5853 0.0 0
M  V30 10 C -3.8956 3.5179 0.0 0
M  V30 11 N -2.9394 -3.3998 0.0 0
M  V30 12 C -0.6256 -2.6443 0.0 0
M  V30 13 C -0.4367 5.4421 0.0 0
M  V30 14 C 1.4874 3.7067 0.0 0
M  V30 15 C -5.3358 3.9901 0.0 0
M  V30 16 C -3.0221 4.7456 0.0 0
M  V30 17 N -2.0658 -4.6039 0.0 0
M  V30 18 C -0.6374 -4.1317 0.0 0
M  V30 19 C 0.661 -1.8888 0.0 0
M  V30 20 C 1.0152 5.147 0.0 0
M  V30 21 N -5.3477 5.5011 0.0 0
M  V30 22 C -3.9192 5.9733 0.0 0
M  V30 23 C 0.6492 -4.8754 0.0 0
M  V30 24 C 1.9478 -2.6207 0.0 0
M  V30 25 C 2.0068 6.2684 0.0 0
M  V30 26 C -6.5754 6.3983 0.0 0
M  V30 27 C 1.936 -4.1199 0.0 0
M  V30 28 C 1.5346 7.7087 0.0 0
M  V30 29 C 3.4588 5.9733 0.0 0
M  V30 30 C 2.5262 8.8302 0.0 0
M  V30 31 C 4.4505 7.0948 0.0 0
M  V30 32 C 3.9783 8.535 0.0 0
M  V30 END ATOM
M  V30 BEGIN BOND
M  V30 1 2 1 2
M  V30 2 1 2 3
M  V30 3 1 2 4
M  V30 4 1 3 5
M  V30 5 1 3 6
M  V30 6 1 4 7
M  V30 7 2 5 8
M  V30 8 1 5 9
M  V30 9 1 6 10
M  V30 10 1 7 11
M  V30 11 1 7 12
M  V30 12 1 8 13
M  V30 13 2 9 14
M  V30 14 2 10 15
M  V30 15 1 10 16
M  V30 16 2 11 17
M  V30 17 2 12 18
M  V30 18 1 12 19
M  V30 19 2 13 20
M  V30 20 1 15 21
M  V30 21 2 16 22
M  V30 22 1 18 23
M  V30 23 2 19 24
M  V30 24 1 20 25
M  V30 25 1 21 26
M  V30 26 2 23 27
M  V30 27 2 25 28
M  V30 28 1 25 29
M  V30 29 1 28 30
M  V30 30 2 29 31
M  V30 31 2 30 32
M  V30 32 1 14 20
M  V30 33 1 17 18
M  V30 34 1 21 22
M  V30 35 1 24 27
M  V30 36 1 31 32
M  V30 END BOND
M  V30 END CTAB
M  END
>  <Ligand InChI>
InChI=1S/C26H23N5O/c1-29-16-15-20(17-29)18-30(23-13-11-22(12-14-23)21-7-3-2-4-8-21)26(32)19-31-25-10-6-5-9-24(25)27-28-31/h2-17H,18-19H2,1H3

>  <Ligand InChI Key>
FTYGCQPQCNRKNV-UHFFFAOYSA-N

>  <BindingDB MonomerID>
429350

>  <Target Name Assigned by Curator or DataSource>
3C-like proteinase (3CL-PRO)

>  <Target Source Organism According to Curator or DataSource>
Human SARS coronavirus

>  <IC50 (nM)>
51

>  <PMID>
26878082

>  <Ligand HET ID in PDB>


>  <PDB ID(s) for Ligand-Target Complex>


>  <PubChem CID>


>  <PubChem SID>


>  <ChEMBL ID of Ligand>


>  <DrugBank ID of Ligand>


>  <ZINC ID of Ligand>


>  <PDB ID(s) of Target Chain>
1Q2W,1QZ8,1UJ1,1UK2,1UK3,1UK4,1UW7,1WOF,1Z1I,2A5A,2A5I,2A5K,2ACF,2AHM,2ALV,2AMD,2AMQ,2BX3,2BX4,2C3S,2D2D,2DUC,2FAV,2FE8,2FYG,2G9T,2GA6,2GDT,2GRI,2GT7,2GT8,2GTB,2GX4,2GZ7,2GZ8,2GZ9,2H2Z,2HOB,2HSX,2IDY,2JZF,2K7X,2K87,2KAF,2LIZ,2OP9,2OZK,2RNK,2V6N,2VJ1,2XYQ,2XYR,2XYV,2Z3C,2Z3D,2Z3E,2Z94,2Z9G,2Z9J,2Z9K,2Z9L,2ZU4,2ZU5,3D62,3E91,3E9S,3EA7,3EA8,3EBN,3IWM,3M3V,3MJ5,3R24,3SN8,3SNA,3SNB,3SNC,3SND,3SNE,3SZN,3TIT,3TIU,3TNS,3TNT,3V3M,3VB3,3VB4,3VB5,3VB6,3VB7,4MDS,4MM3,4OVZ,4OW0,5C8S,5C8T,5C8U,5F22,5N19,5N5O,5NFY,5TL6,5TL7,5Y3E,5Y3Q,6JYT,6LNQ,6LNY,6LO0,6NUR,6NUS,6W2A,6W79,6WCO,6XHL,6XHN,6XHO,6XMK,6XOA,7AKU,7C2K,7JOY

>  <Smiles>
Cn1cc(CN(C(Cn2nnc3c2cccc3)=O)c(cc2)ccc2-c2ccccc2)cc1

$$$$
429362
Actelion Java MolfileCreator 2.0

  0  0  0  0  0  0              0 V3000
M  V30 BEGIN CTAB
M  V30 COUNTS 32 35 0 0 0
M  V30 BEGIN ATOM
M  V30 1 O 0.0 0.0 0.0 0
M  V30 2 N -0.0303 -1.4848 0.0 0 CHG=1
M  V30 3 O 1.2424 -2.2424 0.0 0 CHG=-1
M  V30 4 C -1.3484 -2.2121 0.0 0
M  V30 5 C -2.6515 -1.4242 0.0 0
M  V30 6 C -1.3787 -3.6969 0.0 0
M  V30 7 C -3.9696 -2.1515 0.0 0
M  V30 8 C -2.6515 0.0909 0.0 0
M  V30 9 C -2.6969 -4.4242 0.0 0
M  V30 10 C -3.9999 -3.6363 0.0 0
M  V30 11 C -3.9545 0.8787 0.0 0
M  V30 12 C -1.3636 0.8484 0.0 0
M  V30 13 C -3.9545 2.3939 0.0 0
M  V30 14 C -5.2727 0.1515 0.0 0
M  V30 15 C -0.6969 0.2727 0.0 0
M  V30 16 C -1.3636 2.3636 0.0 0
M  V30 17 N -2.6666 3.1514 0.0 0
M  V30 18 C -5.2575 3.1818 0.0 0
M  V30 19 O -6.5757 0.9393 0.0 0
M  V30 20 O -5.303 -1.3333 0.0 0
M  V30 21 O -0.7272 -1.2121 0.0 0
M  V30 22 C 1.2121 0.8484 0.0 0
M  V30 23 C -0.0757 3.1211 0.0 0
M  V30 24 C -6.6211 -2.0605 0.0 0
M  V30 25 C 1.2121 2.3636 0.0 0
M  V30 26 C -6.6514 -3.5454 0.0 0
M  V30 27 C -7.9696 -4.2727 0.0 0
M  V30 28 C -7.9999 -5.7575 0.0 0
M  V30 29 C -9.2726 -3.4848 0.0 0
M  V30 30 C -9.3181 -6.4848 0.0 0
M  V30 31 C -10.5908 -4.2121 0.0 0
M  V30 32 C -10.6211 -5.6969 0.0 0
M  V30 END ATOM
M  V30 BEGIN BOND
M  V30 1 2 1 2
M  V30 2 1 2 3
M  V30 3 1 2 4
M  V30 4 2 4 5
M  V30 5 1 4 6
M  V30 6 1 5 7
M  V30 7 1 5 8
M  V30 8 2 6 9
M  V30 9 2 7 10
M  V30 10 1 8 11
M  V30 11 1 8 12
M  V30 12 2 11 13
M  V30 13 1 11 14
M  V30 14 1 12 15
M  V30 15 1 12 16
M  V30 16 1 13 17
M  V30 17 1 13 18
M  V30 18 2 14 19
M  V30 19 1 14 20
M  V30 20 2 15 21
M  V30 21 1 15 22
M  V30 22 1 16 23
M  V30 23 1 20 24
M  V30 24 1 22 25
M  V30 25 1 24 26
M  V30 26 1 26 27
M  V30 27 2 27 28
M  V30 28 1 27 29
M  V30 29 1 28 30
M  V30 30 2 29 31
M  V30 31 2 30 32
M  V30 32 1 9 10
M  V30 33 1 16 17
M  V30 34 1 23 25
M  V30 35 1 31 32
M  V30 END BOND
M  V30 END CTAB
M  END
>  <Ligand InChI>
InChI=1/C25H26N2O5/c1-16-22(25(29)32-15-14-17-8-3-2-4-9-17)23(18-10-5-6-12-20(18)27(30)31)24-19(26-16)11-7-13-21(24)28/h2-6,8-10,12,19,23-24,26H,7,11,13-15H2,1H3

>  <Ligand InChI Key>
TYYASYBDGIPMJT-UHFFFAOYNA-N

>  <BindingDB MonomerID>
429362

>  <Target Name Assigned by Curator or DataSource>
3C-like proteinase (3CL-PRO)

>  <Target Source Organism According to Curator or DataSource>
Human SARS coronavirus

>  <IC50 (nM)>
2500

>  <PMID>
26878082

>  <Ligand HET ID in PDB>


>  <PDB ID(s) for Ligand-Target Complex>


>  <PubChem CID>


>  <PubChem SID>


>  <ChEMBL ID of Ligand>


>  <DrugBank ID of Ligand>


>  <ZINC ID of Ligand>


>  <PDB ID(s) of Target Chain>
1Q2W,1QZ8,1UJ1,1UK2,1UK3,1UK4,1UW7,1WOF,1Z1I,2A5A,2A5I,2A5K,2ACF,2AHM,2ALV,2AMD,2AMQ,2BX3,2BX4,2C3S,2D2D,2DUC,2FAV,2FE8,2FYG,2G9T,2GA6,2GDT,2GRI,2GT7,2GT8,2GTB,2GX4,2GZ7,2GZ8,2GZ9,2H2Z,2HOB,2HSX,2IDY,2JZF,2K7X,2K87,2KAF,2LIZ,2OP9,2OZK,2RNK,2V6N,2VJ1,2XYQ,2XYR,2XYV,2Z3C,2Z3D,2Z3E,2Z94,2Z9G,2Z9J,2Z9K,2Z9L,2ZU4,2ZU5,3D62,3E91,3E9S,3EA7,3EA8,3EBN,3IWM,3M3V,3MJ5,3R24,3SN8,3SNA,3SNB,3SNC,3SND,3SNE,3SZN,3TIT,3TIU,3TNS,3TNT,3V3M,3VB3,3VB4,3VB5,3VB6,3VB7,4MDS,4MM3,4OVZ,4OW0,5C8S,5C8T,5C8U,5F22,5N19,5N5O,5NFY,5TL6,5TL7,5Y3E,5Y3Q,6JYT,6LNQ,6LNY,6LO0,6NUR,6NUS,6W2A,6W79,6WCO,6XHL,6XHN,6XHO,6XMK,6XOA,7AKU,7C2K,7JOY

>  <Smiles>
CC(NC(CCC1)C(C2c(cccc3)c3[N+]([O-])=O)C1=O)=C2C(OCCc1ccccc1)=O

$$$$
50443527
Actelion Java MolfileCreator 2.0

  0  0  0  0  0  0              0 V3000
M  V30 BEGIN CTAB
M  V30 COUNTS 21 23 0 0 0
M  V30 BEGIN ATOM
M  V30 1 S 0.0 0.0 0.0 0
M  V30 2 O -0.0118 1.511 0.0 0
M  V30 3 O -1.511 0.0118 0.0 0
M  V30 4 O 1.4873 0.0118 0.0 0
M  V30 5 C -0.0118 -1.4873 0.0 0
M  V30 6 C 1.2749 -2.2192 0.0 0
M  V30 7 C -1.3221 -2.2192 0.0 0
M  V30 8 C 1.2631 -3.7066 0.0 0
M  V30 9 C 2.5616 -1.4637 0.0 0
M  V30 10 S -2.7623 -1.7471 0.0 0
M  V30 11 C -1.3339 -3.7066 0.0 0
M  V30 12 C -0.0472 -4.4385 0.0 0
M  V30 13 C -3.6594 -2.9511 0.0 0
M  V30 14 N -2.7741 -4.1552 0.0 0
M  V30 15 C -5.1704 -2.9393 0.0 0
M  V30 16 C -5.9259 -4.226 0.0 0
M  V30 17 C -5.9259 -1.629 0.0 0
M  V30 18 C -7.4369 -4.2142 0.0 0
M  V30 19 C -7.4369 -1.6172 0.0 0
M  V30 20 C -8.1924 -2.9039 0.0 0
M  V30 21 N -9.7034 -2.8921 0.0 0
M  V30 END ATOM
M  V30 BEGIN BOND
M  V30 1 2 1 2
M  V30 2 2 1 3
M  V30 3 1 1 4
M  V30 4 1 1 5
M  V30 5 2 5 6
M  V30 6 1 5 7
M  V30 7 1 6 8
M  V30 8 1 6 9
M  V30 9 1 7 10
M  V30 10 2 7 11
M  V30 11 2 8 12
M  V30 12 1 10 13
M  V30 13 1 11 14
M  V30 14 1 13 15
M  V30 15 2 15 16
M  V30 16 1 15 17
M  V30 17 1 16 18
M  V30 18 2 17 19
M  V30 19 2 18 20
M  V30 20 1 20 21
M  V30 21 1 11 12
M  V30 22 2 13 14
M  V30 23 1 19 20
M  V30 END BOND
M  V30 END CTAB
M  END
>  <Ligand InChI>
InChI=1S/C14H12N2O3S2/c1-8-2-7-11-12(13(8)21(17,18)19)20-14(16-11)9-3-5-10(15)6-4-9/h2-7H,15H2,1H3,(H,17,18,19)

>  <Ligand InChI Key>
KGZUHYIHYBDNLC-UHFFFAOYSA-N

>  <BindingDB MonomerID>
50443527

>  <Target Name Assigned by Curator or DataSource>
3C-like proteinase (3CL-PRO)

>  <Target Source Organism According to Curator or DataSource>
Human SARS coronavirus

>  <IC50 (nM)>
4300

>  <PMID>
26878082

>  <Ligand HET ID in PDB>


>  <PDB ID(s) for Ligand-Target Complex>


>  <PubChem CID>
174223

>  <PubChem SID>
194941423

>  <ChEMBL ID of Ligand>
CHEMBL1339340

>  <DrugBank ID of Ligand>


>  <ZINC ID of Ligand>


>  <PDB ID(s) of Target Chain>
1Q2W,1QZ8,1UJ1,1UK2,1UK3,1UK4,1UW7,1WOF,1Z1I,2A5A,2A5I,2A5K,2ACF,2AHM,2ALV,2AMD,2AMQ,2BX3,2BX4,2C3S,2D2D,2DUC,2FAV,2FE8,2FYG,2G9T,2GA6,2GDT,2GRI,2GT7,2GT8,2GTB,2GX4,2GZ7,2GZ8,2GZ9,2H2Z,2HOB,2HSX,2IDY,2JZF,2K7X,2K87,2KAF,2LIZ,2OP9,2OZK,2RNK,2V6N,2VJ1,2XYQ,2XYR,2XYV,2Z3C,2Z3D,2Z3E,2Z94,2Z9G,2Z9J,2Z9K,2Z9L,2ZU4,2ZU5,3D62,3E91,3E9S,3EA7,3EA8,3EBN,3IWM,3M3V,3MJ5,3R24,3SN8,3SNA,3SNB,3SNC,3SND,3SNE,3SZN,3TIT,3TIU,3TNS,3TNT,3V3M,3VB3,3VB4,3VB5,3VB6,3VB7,4MDS,4MM3,4OVZ,4OW0,5C8S,5C8T,5C8U,5F22,5N19,5N5O,5NFY,5TL6,5TL7,5Y3E,5Y3Q,6JYT,6LNQ,6LNY,6LO0,6NUR,6NUS,6W2A,6W79,6WCO,6XHL,6XHN,6XHO,6XMK,6XOA,7AKU,7C2K,7JOY

>  <Smiles>
Cc(ccc1c2sc(-c(cc3)ccc3N)n1)c2S(O)(=O)=O

$$$$
429364
Actelion Java MolfileCreator 2.0

  0  0  0  0  0  0              0 V3000
M  V30 BEGIN CTAB
M  V30 COUNTS 17 18 0 0 0
M  V30 BEGIN ATOM
M  V30 1 F 0.0 0.0 0.0 0
M  V30 2 C -1.3039 0.7518 0.0 0
M  V30 3 F -2.0557 -0.5286 0.0 0
M  V30 4 F -0.5755 2.0557 0.0 0
M  V30 5 C -2.6078 1.5036 0.0 0
M  V30 6 C -2.6195 3.0072 0.0 0
M  V30 7 C -3.9117 0.7752 0.0 0
M  V30 8 C -3.9234 3.759 0.0 0
M  V30 9 C -5.2156 1.5271 0.0 0
M  V30 10 O -3.9352 5.2626 0.0 0
M  V30 11 C -5.2273 3.0307 0.0 0
M  V30 12 O -6.6487 1.0807 0.0 0
M  V30 13 C -6.6605 3.5005 0.0 0
M  V30 14 C -7.5415 2.3023 0.0 0
M  V30 15 C -9.0451 2.3141 0.0 0
M  V30 16 O -9.7969 1.0337 0.0 0
M  V30 17 O -9.7969 3.618 0.0 0 CHG=-1
M  V30 END ATOM
M  V30 BEGIN BOND
M  V30 1 1 1 2
M  V30 2 1 2 3
M  V30 3 1 2 4
M  V30 4 1 2 5
M  V30 5 2 5 6
M  V30 6 1 5 7
M  V30 7 1 6 8
M  V30 8 2 7 9
M  V30 9 1 8 10
M  V30 10 2 8 11
M  V30 11 1 9 12
M  V30 12 1 11 13
M  V30 13 1 12 14
M  V30 14 1 14 15
M  V30 15 2 15 16
M  V30 16 1 15 17
M  V30 17 1 9 11
M  V30 18 2 13 14
M  V30 END BOND
M  V30 END CTAB
M  END
>  <Ligand InChI>
InChI=1S/C10H5F3O4/c11-10(12,13)4-1-6(14)5-3-8(9(15)16)17-7(5)2-4/h1-3,14H,(H,15,16)/p-1

>  <Ligand InChI Key>
KEYHIPIBGSAJQX-UHFFFAOYSA-M

>  <BindingDB MonomerID>
429364

>  <Target Name Assigned by Curator or DataSource>
3C-like proteinase (3CL-PRO)

>  <Target Source Organism According to Curator or DataSource>
Human SARS coronavirus

>  <IC50 (nM)>
4300

>  <PMID>
26878082

>  <Ligand HET ID in PDB>


>  <PDB ID(s) for Ligand-Target Complex>


>  <PubChem CID>


>  <PubChem SID>


>  <ChEMBL ID of Ligand>


>  <DrugBank ID of Ligand>


>  <ZINC ID of Ligand>


>  <PDB ID(s) of Target Chain>
1Q2W,1QZ8,1UJ1,1UK2,1UK3,1UK4,1UW7,1WOF,1Z1I,2A5A,2A5I,2A5K,2ACF,2AHM,2ALV,2AMD,2AMQ,2BX3,2BX4,2C3S,2D2D,2DUC,2FAV,2FE8,2FYG,2G9T,2GA6,2GDT,2GRI,2GT7,2GT8,2GTB,2GX4,2GZ7,2GZ8,2GZ9,2H2Z,2HOB,2HSX,2IDY,2JZF,2K7X,2K87,2KAF,2LIZ,2OP9,2OZK,2RNK,2V6N,2VJ1,2XYQ,2XYR,2XYV,2Z3C,2Z3D,2Z3E,2Z94,2Z9G,2Z9J,2Z9K,2Z9L,2ZU4,2ZU5,3D62,3E91,3E9S,3EA7,3EA8,3EBN,3IWM,3M3V,3MJ5,3R24,3SN8,3SNA,3SNB,3SNC,3SND,3SNE,3SZN,3TIT,3TIU,3TNS,3TNT,3V3M,3VB3,3VB4,3VB5,3VB6,3VB7,4MDS,4MM3,4OVZ,4OW0,5C8S,5C8T,5C8U,5F22,5N19,5N5O,5NFY,5TL6,5TL7,5Y3E,5Y3Q,6JYT,6LNQ,6LNY,6LO0,6NUR,6NUS,6W2A,6W79,6WCO,6XHL,6XHN,6XHO,6XMK,6XOA,7AKU,7C2K,7JOY

>  <Smiles>
[O-]C(c(oc1cc(C(F)(F)F)c2)cc1c2O)=O

$$$$
429371
Actelion Java MolfileCreator 2.0

  0  0  0  0  0  0              0 V3000
M  V30 BEGIN CTAB
M  V30 COUNTS 33 35 0 0 0
M  V30 BEGIN ATOM
M  V30 1 Br 0.0 0.0 0.0 0
M  V30 2 C -0.5035 1.4287 0.0 0
M  V30 3 C 0.4684 2.5765 0.0 0
M  V30 4 C -1.9909 1.7215 0.0 0
M  V30 5 C -0.0351 4.0053 0.0 0
M  V30 6 C -2.4945 3.1503 0.0 0
M  V30 7 C -1.5224 4.298 0.0 0
M  V30 8 C 0.9369 5.153 0.0 0
M  V30 9 C 2.4008 4.8836 0.0 0
M  V30 10 C 3.3728 6.0313 0.0 0
M  V30 11 O 2.8692 7.4601 0.0 0
M  V30 12 N 4.8368 5.762 0.0 0
M  V30 13 C 5.8088 6.9097 0.0 0 CFG=2
M  V30 14 C 7.2727 6.6403 0.0 0
M  V30 15 C 5.3052 8.3385 0.0 0
M  V30 16 O 7.7529 5.235 0.0 0
M  V30 17 N 8.2448 7.788 0.0 0
M  V30 18 C 6.2773 9.4862 0.0 0
M  V30 19 C 9.7087 7.5187 0.0 0 CFG=2
M  V30 20 C 5.7737 10.915 0.0 0
M  V30 21 C 7.7412 9.2168 0.0 0
M  V30 22 C 10.1889 6.1133 0.0 0
M  V30 23 C 10.6808 8.6664 0.0 0
M  V30 24 C 6.7457 12.0627 0.0 0
M  V30 25 C 8.7133 10.3646 0.0 0
M  V30 26 O 9.1934 4.989 0.0 0
M  V30 27 C 12.1447 8.397 0.0 0 CFG=1
M  V30 28 C 8.2097 11.7934 0.0 0
M  V30 29 C 12.7654 7.0502 0.0 0
M  V30 30 C 13.2222 9.4276 0.0 0
M  V30 31 O 12.0276 5.7503 0.0 0
M  V30 32 N 14.241 7.2493 0.0 0
M  V30 33 C 14.5221 8.7133 0.0 0
M  V30 END ATOM
M  V30 BEGIN BOND
M  V30 1 1 1 2
M  V30 2 2 2 3
M  V30 3 1 2 4
M  V30 4 1 3 5
M  V30 5 2 4 6
M  V30 6 2 5 7
M  V30 7 1 5 8
M  V30 8 2 8 9
M  V30 9 1 9 10
M  V30 10 2 10 11
M  V30 11 1 10 12
M  V30 12 1 13 12 CFG=1
M  V30 13 1 13 14
M  V30 14 1 13 15
M  V30 15 2 14 16
M  V30 16 1 14 17
M  V30 17 1 15 18
M  V30 18 1 19 17 CFG=1
M  V30 19 2 18 20
M  V30 20 1 18 21
M  V30 21 1 19 22
M  V30 22 1 19 23
M  V30 23 1 20 24
M  V30 24 2 21 25
M  V30 25 2 22 26
M  V30 26 1 27 23 CFG=3
M  V30 27 2 24 28
M  V30 28 1 27 29
M  V30 29 1 27 30
M  V30 30 2 29 31
M  V30 31 1 29 32
M  V30 32 1 30 33
M  V30 33 1 6 7
M  V30 34 1 25 28
M  V30 35 1 32 33
M  V30 END BOND
M  V30 BEGIN COLLECTION
M  V30 MDLV30/STEABS ATOMS=(3 13 19 27)
M  V30 END COLLECTION
M  V30 END CTAB
M  END
>  <Ligand InChI>
InChI=1S/C25H26BrN3O4/c26-20-8-4-7-18(13-20)9-10-23(31)29-22(14-17-5-2-1-3-6-17)25(33)28-21(16-30)15-19-11-12-27-24(19)32/h1-10,13,16,19,21-22H,11-12,14-15H2,(H,27,32)(H,28,33)(H,29,31)/b10-9+/t19-,21-,22-/m0/s1

>  <Ligand InChI Key>
IDHUSOHEXWRKIE-LPCYXGDASA-N

>  <BindingDB MonomerID>
429371

>  <Target Name Assigned by Curator or DataSource>
3C-like proteinase (3CL-PRO)

>  <Target Source Organism According to Curator or DataSource>
Human SARS coronavirus

>  <IC50 (nM)>
700

>  <PMID>
32852058

>  <Ligand HET ID in PDB>


>  <PDB ID(s) for Ligand-Target Complex>


>  <PubChem CID>


>  <PubChem SID>


>  <ChEMBL ID of Ligand>


>  <DrugBank ID of Ligand>


>  <ZINC ID of Ligand>


>  <PDB ID(s) of Target Chain>
1Q2W,1QZ8,1UJ1,1UK2,1UK3,1UK4,1UW7,1WOF,1Z1I,2A5A,2A5I,2A5K,2ACF,2AHM,2ALV,2AMD,2AMQ,2BX3,2BX4,2C3S,2D2D,2DUC,2FAV,2FE8,2FYG,2G9T,2GA6,2GDT,2GRI,2GT7,2GT8,2GTB,2GX4,2GZ7,2GZ8,2GZ9,2H2Z,2HOB,2HSX,2IDY,2JZF,2K7X,2K87,2KAF,2LIZ,2OP9,2OZK,2RNK,2V6N,2VJ1,2XYQ,2XYR,2XYV,2Z3C,2Z3D,2Z3E,2Z94,2Z9G,2Z9J,2Z9K,2Z9L,2ZU4,2ZU5,3D62,3E91,3E9S,3EA7,3EA8,3EBN,3IWM,3M3V,3MJ5,3R24,3SN8,3SNA,3SNB,3SNC,3SND,3SNE,3SZN,3TIT,3TIU,3TNS,3TNT,3V3M,3VB3,3VB4,3VB5,3VB6,3VB7,4MDS,4MM3,4OVZ,4OW0,5C8S,5C8T,5C8U,5F22,5N19,5N5O,5NFY,5TL6,5TL7,5Y3E,5Y3Q,6JYT,6LNQ,6LNY,6LO0,6NUR,6NUS,6W2A,6W79,6WCO,6XHL,6XHN,6XHO,6XMK,6XOA,7AKU,7C2K,7JOY

>  <Smiles>
O=C[C@H](C[C@H](CCN1)C1=O)NC([C@H](Cc1ccccc1)NC(/C=C/c1cccc(Br)c1)=O)=O

$$$$
429372
Actelion Java MolfileCreator 2.0

  0  0  0  0  0  0              0 V3000
M  V30 BEGIN CTAB
M  V30 COUNTS 34 36 0 0 0
M  V30 BEGIN ATOM
M  V30 1 Cl 0.0 0.0 0.0 0
M  V30 2 C 0.9729 1.1487 0.0 0
M  V30 3 C 0.4688 2.5789 0.0 0
M  V30 4 C 2.4382 0.8791 0.0 0
M  V30 5 C 1.4418 3.7277 0.0 0
M  V30 6 C 3.4112 2.0279 0.0 0
M  V30 7 F 0.9377 5.1578 0.0 0
M  V30 8 C 2.9071 3.4581 0.0 0
M  V30 9 C 3.8801 4.6069 0.0 0
M  V30 10 C 5.3454 4.3373 0.0 0
M  V30 11 C 6.3183 5.4861 0.0 0
M  V30 12 O 5.8143 6.9162 0.0 0
M  V30 13 N 7.7837 5.2164 0.0 0
M  V30 14 C 8.7566 6.3652 0.0 0 CFG=2
M  V30 15 C 10.2219 6.0956 0.0 0
M  V30 16 C 8.2525 7.7954 0.0 0
M  V30 17 O 10.7025 4.6889 0.0 0
M  V30 18 N 11.1949 7.2444 0.0 0
M  V30 19 C 9.2255 8.9442 0.0 0
M  V30 20 C 12.6602 6.9748 0.0 0 CFG=2
M  V30 21 C 8.7214 10.3743 0.0 0
M  V30 22 C 10.6908 8.6746 0.0 0
M  V30 23 C 13.1408 5.5681 0.0 0
M  V30 24 C 13.6332 8.1236 0.0 0
M  V30 25 C 9.6944 11.5231 0.0 0
M  V30 26 C 11.6638 9.8234 0.0 0
M  V30 27 O 12.1444 4.4428 0.0 0
M  V30 28 C 15.0985 7.854 0.0 0 CFG=1
M  V30 29 C 11.1597 11.2535 0.0 0
M  V30 30 C 15.7197 6.5059 0.0 0
M  V30 31 C 16.1769 8.8856 0.0 0
M  V30 32 O 14.9812 5.2047 0.0 0
M  V30 33 N 17.1968 6.7052 0.0 0
M  V30 34 C 17.4781 8.1705 0.0 0
M  V30 END ATOM
M  V30 BEGIN BOND
M  V30 1 1 1 2
M  V30 2 2 2 3
M  V30 3 1 2 4
M  V30 4 1 3 5
M  V30 5 2 4 6
M  V30 6 1 5 7
M  V30 7 2 5 8
M  V30 8 1 8 9
M  V30 9 2 9 10
M  V30 10 1 10 11
M  V30 11 2 11 12
M  V30 12 1 11 13
M  V30 13 1 14 13 CFG=1
M  V30 14 1 14 15
M  V30 15 1 14 16
M  V30 16 2 15 17
M  V30 17 1 15 18
M  V30 18 1 16 19
M  V30 19 1 20 18 CFG=1
M  V30 20 2 19 21
M  V30 21 1 19 22
M  V30 22 1 20 23
M  V30 23 1 20 24
M  V30 24 1 21 25
M  V30 25 2 22 26
M  V30 26 2 23 27
M  V30 27 1 28 24 CFG=3
M  V30 28 2 25 29
M  V30 29 1 28 30
M  V30 30 1 28 31
M  V30 31 2 30 32
M  V30 32 1 30 33
M  V30 33 1 31 34
M  V30 34 1 6 8
M  V30 35 1 26 29
M  V30 36 1 33 34
M  V30 END BOND
M  V30 BEGIN COLLECTION
M  V30 MDLV30/STEABS ATOMS=(3 14 20 28)
M  V30 END COLLECTION
M  V30 END CTAB
M  END
>  <Ligand InChI>
InChI=1S/C25H25ClFN3O4/c26-19-8-6-17(21(27)14-19)7-9-23(32)30-22(12-16-4-2-1-3-5-16)25(34)29-20(15-31)13-18-10-11-28-24(18)33/h1-9,14-15,18,20,22H,10-13H2,(H,28,33)(H,29,34)(H,30,32)/b9-7+/t18-,20-,22-/m0/s1

>  <Ligand InChI Key>
HXAHMXYAYHWWRI-ZCTWNQIISA-N

>  <BindingDB MonomerID>
429372

>  <Target Name Assigned by Curator or DataSource>
3C-like proteinase (3CL-PRO)

>  <Target Source Organism According to Curator or DataSource>
Human SARS coronavirus

>  <IC50 (nM)>
200

>  <PMID>
32852058

>  <Ligand HET ID in PDB>


>  <PDB ID(s) for Ligand-Target Complex>


>  <PubChem CID>


>  <PubChem SID>


>  <ChEMBL ID of Ligand>


>  <DrugBank ID of Ligand>


>  <ZINC ID of Ligand>


>  <PDB ID(s) of Target Chain>
1Q2W,1QZ8,1UJ1,1UK2,1UK3,1UK4,1UW7,1WOF,1Z1I,2A5A,2A5I,2A5K,2ACF,2AHM,2ALV,2AMD,2AMQ,2BX3,2BX4,2C3S,2D2D,2DUC,2FAV,2FE8,2FYG,2G9T,2GA6,2GDT,2GRI,2GT7,2GT8,2GTB,2GX4,2GZ7,2GZ8,2GZ9,2H2Z,2HOB,2HSX,2IDY,2JZF,2K7X,2K87,2KAF,2LIZ,2OP9,2OZK,2RNK,2V6N,2VJ1,2XYQ,2XYR,2XYV,2Z3C,2Z3D,2Z3E,2Z94,2Z9G,2Z9J,2Z9K,2Z9L,2ZU4,2ZU5,3D62,3E91,3E9S,3EA7,3EA8,3EBN,3IWM,3M3V,3MJ5,3R24,3SN8,3SNA,3SNB,3SNC,3SND,3SNE,3SZN,3TIT,3TIU,3TNS,3TNT,3V3M,3VB3,3VB4,3VB5,3VB6,3VB7,4MDS,4MM3,4OVZ,4OW0,5C8S,5C8T,5C8U,5F22,5N19,5N5O,5NFY,5TL6,5TL7,5Y3E,5Y3Q,6JYT,6LNQ,6LNY,6LO0,6NUR,6NUS,6W2A,6W79,6WCO,6XHL,6XHN,6XHO,6XMK,6XOA,7AKU,7C2K,7JOY

>  <Smiles>
O=C[C@H](C[C@H](CCN1)C1=O)NC([C@H](Cc1ccccc1)NC(/C=C/c(ccc(Cl)c1)c1F)=O)=O

$$$$
429375
Actelion Java MolfileCreator 2.0

  0  0  0  0  0  0              0 V3000
M  V30 BEGIN CTAB
M  V30 COUNTS 34 35 0 0 0
M  V30 BEGIN ATOM
M  V30 1 O 0.0 0.0 0.0 0
M  V30 2 C -0.2466 1.4916 0.0 0
M  V30 3 N 0.9043 2.4429 0.0 0
M  V30 4 C -1.656 2.0436 0.0 0 CFG=1
M  V30 5 C 2.2903 1.9144 0.0 0 CFG=2
M  V30 6 N -2.8305 1.1157 0.0 0
M  V30 7 C -1.9027 3.5352 0.0 0
M  V30 8 C 2.5134 0.4463 0.0 0
M  V30 9 C 3.4413 2.8658 0.0 0
M  V30 10 C -4.24 1.6678 0.0 0
M  V30 11 C -3.3121 4.0873 0.0 0
M  V30 12 C -0.7516 4.4866 0.0 0
M  V30 13 O 1.3389 -0.4815 0.0 0
M  V30 14 C 4.8272 2.3372 0.0 0
M  V30 15 O -4.4866 3.1594 0.0 0
M  V30 16 C -5.4145 0.7399 0.0 0 CFG=1
M  V30 17 C -3.5587 5.5789 0.0 0
M  V30 18 C -0.9983 5.9782 0.0 0
M  V30 19 N 5.2031 0.9043 0.0 0
M  V30 20 C 6.0722 3.1594 0.0 0
M  V30 21 N -6.8239 1.2919 0.0 0
M  V30 22 C -5.1913 -0.7281 0.0 0
M  V30 23 C -2.4077 6.5303 0.0 0
M  V30 24 C 6.6829 0.8339 0.0 0
M  V30 25 N 7.2232 2.2315 0.0 0
M  V30 26 C -7.9984 0.364 0.0 0
M  V30 27 O -7.7752 -1.104 0.0 0
M  V30 28 C -9.4078 0.9161 0.0 0 CFG=1
M  V30 29 N -10.5823 -0.0117 0.0 0
M  V30 30 C -9.6545 2.4077 0.0 0
M  V30 31 C -11.9918 0.5402 0.0 0
M  V30 32 O -11.0639 2.9597 0.0 0
M  V30 33 O -12.2384 2.0319 0.0 0
M  V30 34 C -13.1663 -0.3875 0.0 0
M  V30 END ATOM
M  V30 BEGIN BOND
M  V30 1 2 1 2
M  V30 2 1 2 3
M  V30 3 1 2 4
M  V30 4 1 5 3 CFG=1
M  V30 5 1 4 6 CFG=1
M  V30 6 1 4 7
M  V30 7 1 5 8
M  V30 8 1 5 9
M  V30 9 1 6 10
M  V30 10 1 7 11
M  V30 11 1 7 12
M  V30 12 2 8 13
M  V30 13 1 9 14
M  V30 14 2 10 15
M  V30 15 1 10 16
M  V30 16 1 11 17
M  V30 17 1 12 18
M  V30 18 2 14 19
M  V30 19 1 14 20
M  V30 20 1 16 21 CFG=3
M  V30 21 1 16 22
M  V30 22 1 17 23
M  V30 23 1 19 24
M  V30 24 2 20 25
M  V30 25 1 21 26
M  V30 26 2 26 27
M  V30 27 1 26 28
M  V30 28 1 28 29 CFG=1
M  V30 29 1 28 30
M  V30 30 1 29 31
M  V30 31 1 30 32
M  V30 32 2 31 33
M  V30 33 1 31 34
M  V30 34 1 18 23
M  V30 35 1 24 25
M  V30 END BOND
M  V30 BEGIN COLLECTION
M  V30 MDLV30/STEABS ATOMS=(4 4 5 16 28)
M  V30 END COLLECTION
M  V30 END CTAB
M  END
>  <Ligand InChI>
InChI=1S/C22H34N6O6/c1-13(25-21(33)18(11-30)26-14(2)31)20(32)28-19(15-6-4-3-5-7-15)22(34)27-17(10-29)8-16-9-23-12-24-16/h9-10,12-13,15,17-19,30H,3-8,11H2,1-2H3,(H,23,24)(H,25,33)(H,26,31)(H,27,34)(H,28,32)/t13-,17-,18-,19-/m0/s1

>  <Ligand InChI Key>
YYWLEUZAMQWYRU-VKOGCVSHSA-N

>  <BindingDB MonomerID>
429375

>  <Target Name Assigned by Curator or DataSource>
3C-like proteinase (3CL-PRO)

>  <Target Source Organism According to Curator or DataSource>
Human SARS coronavirus

>  <IC50 (nM)>
98

>  <PMID>
32852058

>  <Ligand HET ID in PDB>


>  <PDB ID(s) for Ligand-Target Complex>


>  <PubChem CID>


>  <PubChem SID>


>  <ChEMBL ID of Ligand>


>  <DrugBank ID of Ligand>


>  <ZINC ID of Ligand>


>  <PDB ID(s) of Target Chain>
1Q2W,1QZ8,1UJ1,1UK2,1UK3,1UK4,1UW7,1WOF,1Z1I,2A5A,2A5I,2A5K,2ACF,2AHM,2ALV,2AMD,2AMQ,2BX3,2BX4,2C3S,2D2D,2DUC,2FAV,2FE8,2FYG,2G9T,2GA6,2GDT,2GRI,2GT7,2GT8,2GTB,2GX4,2GZ7,2GZ8,2GZ9,2H2Z,2HOB,2HSX,2IDY,2JZF,2K7X,2K87,2KAF,2LIZ,2OP9,2OZK,2RNK,2V6N,2VJ1,2XYQ,2XYR,2XYV,2Z3C,2Z3D,2Z3E,2Z94,2Z9G,2Z9J,2Z9K,2Z9L,2ZU4,2ZU5,3D62,3E91,3E9S,3EA7,3EA8,3EBN,3IWM,3M3V,3MJ5,3R24,3SN8,3SNA,3SNB,3SNC,3SND,3SNE,3SZN,3TIT,3TIU,3TNS,3TNT,3V3M,3VB3,3VB4,3VB5,3VB6,3VB7,4MDS,4MM3,4OVZ,4OW0,5C8S,5C8T,5C8U,5F22,5N19,5N5O,5NFY,5TL6,5TL7,5Y3E,5Y3Q,6JYT,6LNQ,6LNY,6LO0,6NUR,6NUS,6W2A,6W79,6WCO,6XHL,6XHN,6XHO,6XMK,6XOA,7AKU,7C2K,7JOY

>  <Smiles>
C[C@@H](C(N[C@@H](C1CCCCC1)C(N[C@@H](CC1=NCN=C1)C=O)=O)=O)NC([C@H](CO)NC(C)=O)=O

$$$$
429391
Actelion Java MolfileCreator 2.0

  0  0  0  0  0  0              0 V3000
M  V30 BEGIN CTAB
M  V30 COUNTS 42 45 0 0 0
M  V30 BEGIN ATOM
M  V30 1 O 0.0 0.0 0.0 0
M  V30 2 C 1.1024 -0.9957 0.0 0
M  V30 3 N 2.5604 -0.6756 0.0 0
M  V30 4 C 0.9364 -2.4774 0.0 0 CFG=1
M  V30 5 C 3.2953 -1.9677 0.0 0
M  V30 6 C 2.2996 -3.082 0.0 0
M  V30 7 C -0.3793 -3.2124 0.0 0
M  V30 8 C -0.3911 -4.7059 0.0 0 CFG=2
M  V30 9 N -1.7069 -5.4409 0.0 0
M  V30 10 C 0.9008 -5.4409 0.0 0
M  V30 11 C -3.0227 -4.6822 0.0 0
M  V30 12 O 0.889 -6.9345 0.0 0
M  V30 13 C 2.1929 -4.6822 0.0 0
M  V30 14 O -3.0345 -3.1649 0.0 0
M  V30 15 C -4.3385 -5.4172 0.0 0 CFG=1
M  V30 16 O 3.0701 -3.4494 0.0 0
M  V30 17 N 3.485 -5.4172 0.0 0
M  V30 18 N -5.6543 -4.6585 0.0 0
M  V30 19 C -4.3503 -6.9108 0.0 0
M  V30 20 C 4.7771 -4.6585 0.0 0
M  V30 21 C -6.97 -5.3935 0.0 0
M  V30 22 C -3.0583 -7.6457 0.0 0
M  V30 23 C 6.0691 -5.3935 0.0 0
M  V30 24 O -6.9819 -6.8871 0.0 0
M  V30 25 C -8.2858 -4.6348 0.0 0
M  V30 26 C -1.7662 -6.8871 0.0 0
M  V30 27 C -3.0701 -9.1393 0.0 0
M  V30 28 C 7.3612 -4.6348 0.0 0
M  V30 29 C 6.0573 -6.8871 0.0 0
M  V30 30 C -9.6016 -5.3698 0.0 0
M  V30 31 C -0.4741 -7.622 0.0 0
M  V30 32 C -1.778 -9.8742 0.0 0
M  V30 33 C 8.6533 -5.3698 0.0 0
M  V30 34 C 7.3494 -7.622 0.0 0
M  V30 35 C -10.9174 -4.6111 0.0 0
M  V30 36 C -0.486 -9.1156 0.0 0
M  V30 37 C 8.6414 -6.8633 0.0 0
M  V30 38 C -12.2332 -5.346 0.0 0
M  V30 39 C -10.9292 -3.0938 0.0 0
M  V30 40 C -13.5489 -4.5874 0.0 0
M  V30 41 C -12.245 -2.3352 0.0 0
M  V30 42 C -13.5608 -3.0701 0.0 0
M  V30 END ATOM
M  V30 BEGIN BOND
M  V30 1 2 1 2
M  V30 2 1 2 3
M  V30 3 1 2 4
M  V30 4 1 3 5
M  V30 5 1 4 6
M  V30 6 1 4 7 CFG=1
M  V30 7 1 7 8
M  V30 8 1 8 9 CFG=1
M  V30 9 1 8 10
M  V30 10 1 9 11
M  V30 11 2 10 12
M  V30 12 1 10 13
M  V30 13 2 11 14
M  V30 14 1 11 15
M  V30 15 2 13 16
M  V30 16 1 13 17
M  V30 17 1 15 18 CFG=3
M  V30 18 1 15 19
M  V30 19 1 17 20
M  V30 20 1 18 21
M  V30 21 1 19 22
M  V30 22 1 20 23
M  V30 23 2 21 24
M  V30 24 1 21 25
M  V30 25 2 22 26
M  V30 26 1 22 27
M  V30 27 2 23 28
M  V30 28 1 23 29
M  V30 29 2 25 30
M  V30 30 1 26 31
M  V30 31 2 27 32
M  V30 32 1 28 33
M  V30 33 2 29 34
M  V30 34 1 30 35
M  V30 35 2 31 36
M  V30 36 2 33 37
M  V30 37 2 35 38
M  V30 38 1 35 39
M  V30 39 1 38 40
M  V30 40 2 39 41
M  V30 41 2 40 42
M  V30 42 1 5 6
M  V30 43 1 32 36
M  V30 44 1 34 37
M  V30 45 1 41 42
M  V30 END BOND
M  V30 BEGIN COLLECTION
M  V30 MDLV30/STEABS ATOMS=(3 4 8 15)
M  V30 END COLLECTION
M  V30 END CTAB
M  END
>  <Ligand InChI>
InChI=1S/C33H34N4O5/c38-29(17-16-23-10-4-1-5-11-23)36-28(20-24-12-6-2-7-13-24)32(41)37-27(21-26-18-19-34-31(26)40)30(39)33(42)35-22-25-14-8-3-9-15-25/h1-17,26-28H,18-22H2,(H,34,40)(H,35,42)(H,36,38)(H,37,41)/b17-16+/t26-,27-,28-/m0/s1

>  <Ligand InChI Key>
MYYPGCLXUFVQGN-FIVJMQNTSA-N

>  <BindingDB MonomerID>
429391

>  <Target Name Assigned by Curator or DataSource>
3C-like proteinase (3CL-PRO)

>  <Target Source Organism According to Curator or DataSource>
Human SARS coronavirus

>  <IC50 (nM)>
1950

>  <PMID>
32852058

>  <Ligand HET ID in PDB>


>  <PDB ID(s) for Ligand-Target Complex>


>  <PubChem CID>


>  <PubChem SID>


>  <ChEMBL ID of Ligand>


>  <DrugBank ID of Ligand>


>  <ZINC ID of Ligand>


>  <PDB ID(s) of Target Chain>
1Q2W,1QZ8,1UJ1,1UK2,1UK3,1UK4,1UW7,1WOF,1Z1I,2A5A,2A5I,2A5K,2ACF,2AHM,2ALV,2AMD,2AMQ,2BX3,2BX4,2C3S,2D2D,2DUC,2FAV,2FE8,2FYG,2G9T,2GA6,2GDT,2GRI,2GT7,2GT8,2GTB,2GX4,2GZ7,2GZ8,2GZ9,2H2Z,2HOB,2HSX,2IDY,2JZF,2K7X,2K87,2KAF,2LIZ,2OP9,2OZK,2RNK,2V6N,2VJ1,2XYQ,2XYR,2XYV,2Z3C,2Z3D,2Z3E,2Z94,2Z9G,2Z9J,2Z9K,2Z9L,2ZU4,2ZU5,3D62,3E91,3E9S,3EA7,3EA8,3EBN,3IWM,3M3V,3MJ5,3R24,3SN8,3SNA,3SNB,3SNC,3SND,3SNE,3SZN,3TIT,3TIU,3TNS,3TNT,3V3M,3VB3,3VB4,3VB5,3VB6,3VB7,4MDS,4MM3,4OVZ,4OW0,5C8S,5C8T,5C8U,5F22,5N19,5N5O,5NFY,5TL6,5TL7,5Y3E,5Y3Q,6JYT,6LNQ,6LNY,6LO0,6NUR,6NUS,6W2A,6W79,6WCO,6XHL,6XHN,6XHO,6XMK,6XOA,7AKU,7C2K,7JOY

>  <Smiles>
O=C([C@H](C[C@H](CCN1)C1=O)NC([C@H](Cc1ccccc1)NC(/C=C/c1ccccc1)=O)=O)C(NCc1ccccc1)=O

$$$$
420283
Actelion Java MolfileCreator 2.0

  0  0  0  0  0  0              0 V3000
M  V30 BEGIN CTAB
M  V30 COUNTS 42 45 0 0 0
M  V30 BEGIN ATOM
M  V30 1 O 0.0 0.0 0.0 0
M  V30 2 C 0.8286 -1.2311 0.0 0
M  V30 3 N 2.3202 -1.2666 0.0 0
M  V30 4 C 0.3077 -2.628 0.0 0 CFG=1
M  V30 5 C 2.7227 -2.699 0.0 0
M  V30 6 C 1.4797 -3.5395 0.0 0
M  V30 7 C -1.1482 -3.0305 0.0 0
M  V30 8 C -1.527 -4.4747 0.0 0 CFG=2
M  V30 9 N -2.9831 -4.8772 0.0 0
M  V30 10 C -0.4498 -5.5046 0.0 0
M  V30 11 C -4.084 -3.8236 0.0 0
M  V30 12 O -0.8286 -6.9488 0.0 0
M  V30 13 C 0.9825 -5.0784 0.0 0
M  V30 14 O -3.7289 -2.3557 0.0 0
M  V30 15 C -5.5401 -4.2261 0.0 0 CFG=1
M  V30 16 O 2.1189 -4.0959 0.0 0
M  V30 17 N 2.0597 -6.1083 0.0 0
M  V30 18 N -6.641 -3.1725 0.0 0
M  V30 19 C -5.9189 -5.6703 0.0 0
M  V30 20 C 3.4921 -5.6821 0.0 0
M  V30 21 C -8.0971 -3.575 0.0 0
M  V30 22 C -4.8416 -6.7002 0.0 0
M  V30 23 C 4.5694 -6.712 0.0 0
M  V30 24 O -8.4759 -5.0192 0.0 0
M  V30 25 C -9.198 -2.5214 0.0 0
M  V30 26 C -5.1613 -8.1563 0.0 0
M  V30 27 C -3.4211 -6.2267 0.0 0
M  V30 28 C 6.0018 -6.2859 0.0 0
M  V30 29 C 4.1906 -8.1563 0.0 0
M  V30 30 C -10.6541 -2.9239 0.0 0
M  V30 31 C -4.0603 -9.1506 0.0 0
M  V30 32 C -2.3202 -7.2211 0.0 0
M  V30 33 C 7.079 -7.3158 0.0 0
M  V30 34 C 5.2678 -9.1862 0.0 0
M  V30 35 C -11.755 -1.8703 0.0 0
M  V30 36 C -2.6398 -8.6771 0.0 0
M  V30 37 C 6.7002 -8.76 0.0 0
M  V30 38 C -11.459 -0.3906 0.0 0
M  V30 39 C -13.1992 -2.3202 0.0 0
M  V30 40 C -12.5836 0.6274 0.0 0
M  V30 41 C -14.3238 -1.3021 0.0 0
M  V30 42 C -14.0279 0.1775 0.0 0
M  V30 END ATOM
M  V30 BEGIN BOND
M  V30 1 2 1 2
M  V30 2 1 2 3
M  V30 3 1 2 4
M  V30 4 1 3 5
M  V30 5 1 4 6
M  V30 6 1 4 7 CFG=1
M  V30 7 1 7 8
M  V30 8 1 8 9 CFG=1
M  V30 9 1 8 10
M  V30 10 1 9 11
M  V30 11 2 10 12
M  V30 12 1 10 13
M  V30 13 2 11 14
M  V30 14 1 11 15
M  V30 15 2 13 16
M  V30 16 1 13 17
M  V30 17 1 15 18 CFG=3
M  V30 18 1 15 19
M  V30 19 1 17 20
M  V30 20 1 18 21
M  V30 21 1 19 22
M  V30 22 1 20 23
M  V30 23 2 21 24
M  V30 24 1 21 25
M  V30 25 1 22 26
M  V30 26 1 22 27
M  V30 27 2 23 28
M  V30 28 1 23 29
M  V30 29 2 25 30
M  V30 30 1 26 31
M  V30 31 1 27 32
M  V30 32 1 28 33
M  V30 33 2 29 34
M  V30 34 1 30 35
M  V30 35 1 31 36
M  V30 36 2 33 37
M  V30 37 2 35 38
M  V30 38 1 35 39
M  V30 39 1 38 40
M  V30 40 2 39 41
M  V30 41 2 40 42
M  V30 42 1 5 6
M  V30 43 1 32 36
M  V30 44 1 34 37
M  V30 45 1 41 42
M  V30 END BOND
M  V30 BEGIN COLLECTION
M  V30 MDLV30/STEABS ATOMS=(3 4 8 15)
M  V30 END COLLECTION
M  V30 END CTAB
M  END
>  <Ligand InChI>
InChI=1S/C33H40N4O5/c38-29(17-16-23-10-4-1-5-11-23)36-28(20-24-12-6-2-7-13-24)32(41)37-27(21-26-18-19-34-31(26)40)30(39)33(42)35-22-25-14-8-3-9-15-25/h1,3-5,8-11,14-17,24,26-28H,2,6-7,12-13,18-22H2,(H,34,40)(H,35,42)(H,36,38)(H,37,41)/b17-16+/t26-,27-,28-/m0/s1

>  <Ligand InChI Key>
QTGORSKTHIBLJT-FIVJMQNTSA-N

>  <BindingDB MonomerID>
420283

>  <Target Name Assigned by Curator or DataSource>
3C-like proteinase (3CL-PRO)

>  <Target Source Organism According to Curator or DataSource>
Human SARS coronavirus

>  <IC50 (nM)>
710

>  <PMID>
32852058

>  <Ligand HET ID in PDB>


>  <PDB ID(s) for Ligand-Target Complex>


>  <PubChem CID>


>  <PubChem SID>


>  <ChEMBL ID of Ligand>


>  <DrugBank ID of Ligand>


>  <ZINC ID of Ligand>


>  <PDB ID(s) of Target Chain>
1Q2W,1QZ8,1UJ1,1UK2,1UK3,1UK4,1UW7,1WOF,1Z1I,2A5A,2A5I,2A5K,2ACF,2AHM,2ALV,2AMD,2AMQ,2BX3,2BX4,2C3S,2D2D,2DUC,2FAV,2FE8,2FYG,2G9T,2GA6,2GDT,2GRI,2GT7,2GT8,2GTB,2GX4,2GZ7,2GZ8,2GZ9,2H2Z,2HOB,2HSX,2IDY,2JZF,2K7X,2K87,2KAF,2LIZ,2OP9,2OZK,2RNK,2V6N,2VJ1,2XYQ,2XYR,2XYV,2Z3C,2Z3D,2Z3E,2Z94,2Z9G,2Z9J,2Z9K,2Z9L,2ZU4,2ZU5,3D62,3E91,3E9S,3EA7,3EA8,3EBN,3IWM,3M3V,3MJ5,3R24,3SN8,3SNA,3SNB,3SNC,3SND,3SNE,3SZN,3TIT,3TIU,3TNS,3TNT,3V3M,3VB3,3VB4,3VB5,3VB6,3VB7,4MDS,4MM3,4OVZ,4OW0,5C8S,5C8T,5C8U,5F22,5N19,5N5O,5NFY,5TL6,5TL7,5Y3E,5Y3Q,6JYT,6LNQ,6LNY,6LO0,6NUR,6NUS,6W2A,6W79,6WCO,6XHL,6XHN,6XHO,6XMK,6XOA,7AKU,7C2K,7JOY

>  <Smiles>
O=C([C@H](C[C@H](CCN1)C1=O)NC([C@H](CC1CCCCC1)NC(/C=C/c1ccccc1)=O)=O)C(NCc1ccccc1)=O

$$$$
429393
Actelion Java MolfileCreator 2.0

  0  0  0  0  0  0              0 V3000
M  V30 BEGIN CTAB
M  V30 COUNTS 41 44 0 0 0
M  V30 BEGIN ATOM
M  V30 1 O 0.0 0.0 0.0 0
M  V30 2 C 1.102 -0.9954 0.0 0
M  V30 3 N 2.5596 -0.6754 0.0 0
M  V30 4 C 0.9361 -2.4766 0.0 0 CFG=1
M  V30 5 C 3.2943 -1.9671 0.0 0
M  V30 6 C 2.2989 -3.081 0.0 0
M  V30 7 C -0.3792 -3.2232 0.0 0
M  V30 8 C -0.391 -4.7163 0.0 0 CFG=2
M  V30 9 N -1.7064 -5.451 0.0 0
M  V30 10 C 0.9006 -5.451 0.0 0
M  V30 11 C -3.0218 -4.6926 0.0 0
M  V30 12 O 0.8887 -6.9442 0.0 0
M  V30 13 C 2.1922 -4.6926 0.0 0
M  V30 14 O -3.0336 -3.1758 0.0 0
M  V30 15 C -4.3371 -5.4273 0.0 0 CFG=1
M  V30 16 O 3.0692 -3.4602 0.0 0
M  V30 17 N 3.4839 -5.4273 0.0 0
M  V30 18 N -5.6525 -4.6689 0.0 0
M  V30 19 C -4.349 -6.9205 0.0 0
M  V30 20 C 4.7756 -4.6689 0.0 0
M  V30 21 C -6.9679 -5.4036 0.0 0
M  V30 22 C -3.0573 -7.6552 0.0 0
M  V30 23 C 6.0673 -5.4036 0.0 0
M  V30 24 O -6.9797 -6.8968 0.0 0
M  V30 25 C -8.2832 -4.6452 0.0 0
M  V30 26 C -1.6945 -7.0271 0.0 0
M  V30 27 C -2.9151 -9.1365 0.0 0
M  V30 28 C 7.3589 -4.6452 0.0 0
M  V30 29 C 6.0554 -6.8968 0.0 0
M  V30 30 C -9.5986 -5.3799 0.0 0
M  V30 31 C -0.6991 -8.1292 0.0 0
M  V30 32 C -1.4575 -9.4327 0.0 0
M  V30 33 C 8.6506 -5.3799 0.0 0
M  V30 34 C 7.3471 -7.6315 0.0 0
M  V30 35 C -10.914 -4.6215 0.0 0
M  V30 36 C 8.6388 -6.8731 0.0 0
M  V30 37 C -12.2294 -5.3562 0.0 0
M  V30 38 C -10.9258 -3.1047 0.0 0
M  V30 39 C -13.5447 -4.5978 0.0 0
M  V30 40 C -12.2412 -2.3463 0.0 0
M  V30 41 C -13.5566 -3.081 0.0 0
M  V30 END ATOM
M  V30 BEGIN BOND
M  V30 1 2 1 2
M  V30 2 1 2 3
M  V30 3 1 2 4
M  V30 4 1 3 5
M  V30 5 1 4 6
M  V30 6 1 4 7 CFG=1
M  V30 7 1 7 8
M  V30 8 1 8 9 CFG=1
M  V30 9 1 8 10
M  V30 10 1 9 11
M  V30 11 2 10 12
M  V30 12 1 10 13
M  V30 13 2 11 14
M  V30 14 1 11 15
M  V30 15 2 13 16
M  V30 16 1 13 17
M  V30 17 1 15 18 CFG=3
M  V30 18 1 15 19
M  V30 19 1 17 20
M  V30 20 1 18 21
M  V30 21 1 19 22
M  V30 22 1 20 23
M  V30 23 2 21 24
M  V30 24 1 21 25
M  V30 25 1 22 26
M  V30 26 1 22 27
M  V30 27 2 23 28
M  V30 28 1 23 29
M  V30 29 2 25 30
M  V30 30 1 26 31
M  V30 31 1 27 32
M  V30 32 1 28 33
M  V30 33 2 29 34
M  V30 34 1 30 35
M  V30 35 2 33 36
M  V30 36 2 35 37
M  V30 37 1 35 38
M  V30 38 1 37 39
M  V30 39 2 38 40
M  V30 40 2 39 41
M  V30 41 1 5 6
M  V30 42 1 31 32
M  V30 43 1 34 36
M  V30 44 1 40 41
M  V30 END BOND
M  V30 BEGIN COLLECTION
M  V30 MDLV30/STEABS ATOMS=(3 4 8 15)
M  V30 END COLLECTION
M  V30 END CTAB
M  END
>  <Ligand InChI>
InChI=1S/C32H38N4O5/c37-28(16-15-22-9-3-1-4-10-22)35-27(19-23-11-7-8-12-23)31(40)36-26(20-25-17-18-33-30(25)39)29(38)32(41)34-21-24-13-5-2-6-14-24/h1-6,9-10,13-16,23,25-27H,7-8,11-12,17-21H2,(H,33,39)(H,34,41)(H,35,37)(H,36,40)/b16-15+/t25-,26-,27-/m0/s1

>  <Ligand InChI Key>
WKUXHSLNRCEEER-XBVLGBTFSA-N

>  <BindingDB MonomerID>
429393

>  <Target Name Assigned by Curator or DataSource>
3C-like proteinase (3CL-PRO)

>  <Target Source Organism According to Curator or DataSource>
Human SARS coronavirus

>  <IC50 (nM)>
710

>  <PMID>
32852058

>  <Ligand HET ID in PDB>


>  <PDB ID(s) for Ligand-Target Complex>


>  <PubChem CID>


>  <PubChem SID>


>  <ChEMBL ID of Ligand>


>  <DrugBank ID of Ligand>


>  <ZINC ID of Ligand>


>  <PDB ID(s) of Target Chain>
1Q2W,1QZ8,1UJ1,1UK2,1UK3,1UK4,1UW7,1WOF,1Z1I,2A5A,2A5I,2A5K,2ACF,2AHM,2ALV,2AMD,2AMQ,2BX3,2BX4,2C3S,2D2D,2DUC,2FAV,2FE8,2FYG,2G9T,2GA6,2GDT,2GRI,2GT7,2GT8,2GTB,2GX4,2GZ7,2GZ8,2GZ9,2H2Z,2HOB,2HSX,2IDY,2JZF,2K7X,2K87,2KAF,2LIZ,2OP9,2OZK,2RNK,2V6N,2VJ1,2XYQ,2XYR,2XYV,2Z3C,2Z3D,2Z3E,2Z94,2Z9G,2Z9J,2Z9K,2Z9L,2ZU4,2ZU5,3D62,3E91,3E9S,3EA7,3EA8,3EBN,3IWM,3M3V,3MJ5,3R24,3SN8,3SNA,3SNB,3SNC,3SND,3SNE,3SZN,3TIT,3TIU,3TNS,3TNT,3V3M,3VB3,3VB4,3VB5,3VB6,3VB7,4MDS,4MM3,4OVZ,4OW0,5C8S,5C8T,5C8U,5F22,5N19,5N5O,5NFY,5TL6,5TL7,5Y3E,5Y3Q,6JYT,6LNQ,6LNY,6LO0,6NUR,6NUS,6W2A,6W79,6WCO,6XHL,6XHN,6XHO,6XMK,6XOA,7AKU,7C2K,7JOY

>  <Smiles>
O=C([C@H](C[C@H](CCN1)C1=O)NC([C@H](CC1CCCC1)NC(/C=C/c1ccccc1)=O)=O)C(NCc1ccccc1)=O

$$$$
420295
Actelion Java MolfileCreator 2.0

  0  0  0  0  0  0              0 V3000
M  V30 BEGIN CTAB
M  V30 COUNTS 43 46 0 0 0
M  V30 BEGIN ATOM
M  V30 1 O 0.0 0.0 0.0 0
M  V30 2 C 0.3545 1.4653 0.0 0
M  V30 3 N 1.7844 1.8907 0.0 0
M  V30 4 C -0.7445 2.5171 0.0 0
M  V30 5 C 2.1389 3.3561 0.0 0
M  V30 6 C 2.8598 0.8626 0.0 0 CFG=2
M  V30 7 N -2.198 2.1153 0.0 0
M  V30 8 C -0.3899 3.9824 0.0 0
M  V30 9 C 1.0399 4.4079 0.0 0
M  V30 10 C 4.2897 1.2881 0.0 0
M  V30 11 C 2.4816 -0.579 0.0 0
M  V30 12 C -3.297 3.167 0.0 0
M  V30 13 O 4.6442 2.7534 0.0 0
M  V30 14 N 5.3651 0.2599 0.0 0
M  V30 15 C 1.0281 -0.9808 0.0 0
M  V30 16 O -2.9425 4.6324 0.0 0
M  V30 17 O -4.7506 2.7652 0.0 0
M  V30 18 C 6.795 0.6854 0.0 0 CFG=2
M  V30 19 C -0.0236 -2.0562 0.0 0
M  V30 20 C -0.4372 -0.6026 0.0 0
M  V30 21 C -5.8496 3.817 0.0 0
M  V30 22 C 7.8704 -0.3427 0.0 0
M  V30 23 C 7.1495 2.1507 0.0 0
M  V30 24 C -6.9486 4.8688 0.0 0
M  V30 25 C -6.9014 2.7416 0.0 0
M  V30 26 C -4.8215 4.916 0.0 0
M  V30 27 O 7.4922 -1.7844 0.0 0
M  V30 28 C 9.3003 0.0827 0.0 0
M  V30 29 C 8.5794 2.5762 0.0 0 CFG=1
M  V30 30 O 10.4348 1.0635 0.0 0
M  V30 31 N 10.3757 -0.9453 0.0 0
M  V30 32 C 9.0758 3.9943 0.0 0
M  V30 33 C 9.7494 1.6662 0.0 0
M  V30 34 C 11.8056 -0.5199 0.0 0
M  V30 35 O 8.2249 5.2469 0.0 0
M  V30 36 N 10.5648 3.9588 0.0 0
M  V30 37 C 10.9784 2.5171 0.0 0
M  V30 38 C 12.881 -1.548 0.0 0
M  V30 39 C 14.3109 -1.1226 0.0 0
M  V30 40 C 12.5028 -2.9898 0.0 0
M  V30 41 C 15.3863 -2.1507 0.0 0
M  V30 42 C 13.5782 -4.0179 0.0 0
M  V30 43 C 15.0082 -3.5925 0.0 0
M  V30 END ATOM
M  V30 BEGIN BOND
M  V30 1 2 1 2
M  V30 2 1 2 3
M  V30 3 1 2 4
M  V30 4 2 3 5
M  V30 5 1 6 3 CFG=3
M  V30 6 1 4 7
M  V30 7 2 4 8
M  V30 8 1 5 9
M  V30 9 1 6 10
M  V30 10 1 6 11
M  V30 11 1 7 12
M  V30 12 2 10 13
M  V30 13 1 10 14
M  V30 14 1 11 15
M  V30 15 2 12 16
M  V30 16 1 12 17
M  V30 17 1 18 14 CFG=1
M  V30 18 1 15 19
M  V30 19 1 15 20
M  V30 20 1 17 21
M  V30 21 1 18 22
M  V30 22 1 18 23
M  V30 23 1 21 24
M  V30 24 1 21 25
M  V30 25 1 21 26
M  V30 26 2 22 27
M  V30 27 1 22 28
M  V30 28 1 29 23 CFG=1
M  V30 29 2 28 30
M  V30 30 1 28 31
M  V30 31 1 29 32
M  V30 32 1 29 33
M  V30 33 1 31 34
M  V30 34 2 32 35
M  V30 35 1 32 36
M  V30 36 1 33 37
M  V30 37 1 34 38
M  V30 38 2 38 39
M  V30 39 1 38 40
M  V30 40 1 39 41
M  V30 41 2 40 42
M  V30 42 2 41 43
M  V30 43 1 8 9
M  V30 44 1 19 20
M  V30 45 1 36 37
M  V30 46 1 42 43
M  V30 END BOND
M  V30 BEGIN COLLECTION
M  V30 MDLV30/STEABS ATOMS=(3 6 18 29)
M  V30 END COLLECTION
M  V30 END CTAB
M  END
>  <Ligand InChI>
InChI=1S/C31H39N5O7/c1-31(2,3)43-30(42)35-22-10-7-15-36(29(22)41)24(16-19-11-12-19)27(39)34-23(17-21-13-14-32-26(21)38)25(37)28(40)33-18-20-8-5-4-6-9-20/h4-10,15,19,21,23-24H,11-14,16-18H2,1-3H3,(H,32,38)(H,33,40)(H,34,39)(H,35,42)/t21-,23-,24-/m0/s1

>  <Ligand InChI Key>
NLVRHQFXQFSBQK-XWGVYQGASA-N

>  <BindingDB MonomerID>
420295

>  <Target Name Assigned by Curator or DataSource>
3C-like proteinase (3CL-PRO)

>  <Target Source Organism According to Curator or DataSource>
Human SARS coronavirus

>  <IC50 (nM)>
900

>  <PMID>
32852058

>  <Ligand HET ID in PDB>


>  <PDB ID(s) for Ligand-Target Complex>


>  <PubChem CID>


>  <PubChem SID>


>  <ChEMBL ID of Ligand>


>  <DrugBank ID of Ligand>


>  <ZINC ID of Ligand>


>  <PDB ID(s) of Target Chain>
1Q2W,1QZ8,1UJ1,1UK2,1UK3,1UK4,1UW7,1WOF,1Z1I,2A5A,2A5I,2A5K,2ACF,2AHM,2ALV,2AMD,2AMQ,2BX3,2BX4,2C3S,2D2D,2DUC,2FAV,2FE8,2FYG,2G9T,2GA6,2GDT,2GRI,2GT7,2GT8,2GTB,2GX4,2GZ7,2GZ8,2GZ9,2H2Z,2HOB,2HSX,2IDY,2JZF,2K7X,2K87,2KAF,2LIZ,2OP9,2OZK,2RNK,2V6N,2VJ1,2XYQ,2XYR,2XYV,2Z3C,2Z3D,2Z3E,2Z94,2Z9G,2Z9J,2Z9K,2Z9L,2ZU4,2ZU5,3D62,3E91,3E9S,3EA7,3EA8,3EBN,3IWM,3M3V,3MJ5,3R24,3SN8,3SNA,3SNB,3SNC,3SND,3SNE,3SZN,3TIT,3TIU,3TNS,3TNT,3V3M,3VB3,3VB4,3VB5,3VB6,3VB7,4MDS,4MM3,4OVZ,4OW0,5C8S,5C8T,5C8U,5F22,5N19,5N5O,5NFY,5TL6,5TL7,5Y3E,5Y3Q,6JYT,6LNQ,6LNY,6LO0,6NUR,6NUS,6W2A,6W79,6WCO,6XHL,6XHN,6XHO,6XMK,6XOA,7AKU,7C2K,7JOY

>  <Smiles>
CC(C)(C)OC(NC1=CCC=N([C@@H](CC2CC2)C(N[C@@H](C[C@H](CCN2)C2=O)C(C(NCc2ccccc2)=O)=O)=O)C1=O)=O

$$$$
11234
Actelion Java MolfileCreator 2.0

  0  0  0  0  0  0              0 V3000
M  V30 BEGIN CTAB
M  V30 COUNTS 33 35 0 0 0
M  V30 BEGIN ATOM
M  V30 1 Cl 0.0 0.0 0.0 0
M  V30 2 C -0.0118 -1.4899 0.0 0
M  V30 3 C -1.3243 -2.2349 0.0 0
M  V30 4 C 1.277 -2.2349 0.0 0
M  V30 5 N -2.6369 -1.4781 0.0 0
M  V30 6 C -1.3362 -3.7248 0.0 0
M  V30 7 C 1.2652 -3.7248 0.0 0
M  V30 8 C -3.9495 -2.2112 0.0 0
M  V30 9 C -0.0472 -4.4579 0.0 0
M  V30 10 N 2.5541 -4.4579 0.0 0 CHG=1
M  V30 11 O -3.9613 -3.7011 0.0 0
M  V30 12 C -5.262 -1.4544 0.0 0 CFG=1
M  V30 13 O 3.9968 -4.0559 0.0 0
M  V30 14 O 2.5423 -5.9479 0.0 0 CHG=-1
M  V30 15 N -6.5746 -2.1876 0.0 0
M  V30 16 C -5.2739 0.0591 0.0 0
M  V30 17 C -7.8872 -1.4308 0.0 0
M  V30 18 C -3.9849 0.8159 0.0 0
M  V30 19 O -7.899 0.0827 0.0 0
M  V30 20 C -9.1997 -2.1639 0.0 0
M  V30 21 C -3.9968 2.3295 0.0 0
M  V30 22 C -2.696 0.0827 0.0 0
M  V30 23 C -10.5123 -1.4071 0.0 0
M  V30 24 C -9.2115 -3.6538 0.0 0
M  V30 25 C -2.7078 3.0862 0.0 0
M  V30 26 C -1.4071 0.8395 0.0 0
M  V30 27 C -11.8248 -2.1403 0.0 0
M  V30 28 C -10.5241 -4.387 0.0 0
M  V30 29 C -1.4189 2.3531 0.0 0
M  V30 30 C -11.8367 -3.6302 0.0 0
M  V30 31 N -13.1492 -4.3633 0.0 0
M  V30 32 C -13.1611 -5.8533 0.0 0
M  V30 33 C -14.4618 -3.6065 0.0 0
M  V30 END ATOM
M  V30 BEGIN BOND
M  V30 1 1 1 2
M  V30 2 2 2 3
M  V30 3 1 2 4
M  V30 4 1 3 5
M  V30 5 1 3 6
M  V30 6 2 4 7
M  V30 7 1 5 8
M  V30 8 2 6 9
M  V30 9 1 7 10
M  V30 10 2 8 11
M  V30 11 1 8 12
M  V30 12 2 10 13
M  V30 13 1 10 14
M  V30 14 1 12 15 CFG=1
M  V30 15 1 12 16
M  V30 16 1 15 17
M  V30 17 1 16 18
M  V30 18 2 17 19
M  V30 19 1 17 20
M  V30 20 2 18 21
M  V30 21 1 18 22
M  V30 22 2 20 23
M  V30 23 1 20 24
M  V30 24 1 21 25
M  V30 25 2 22 26
M  V30 26 1 23 27
M  V30 27 2 24 28
M  V30 28 2 25 29
M  V30 29 2 27 30
M  V30 30 1 30 31
M  V30 31 1 31 32
M  V30 32 1 31 33
M  V30 33 1 7 9
M  V30 34 1 26 29
M  V30 35 1 28 30
M  V30 END BOND
M  V30 BEGIN COLLECTION
M  V30 MDLV30/STERAC1 ATOMS=(1 12)
M  V30 END COLLECTION
M  V30 END CTAB
M  END
>  <Ligand InChI>
InChI=1S/C24H23ClN4O4/c1-28(2)18-10-8-17(9-11-18)23(30)27-22(14-16-6-4-3-5-7-16)24(31)26-21-13-12-19(29(32)33)15-20(21)25/h3-13,15,22H,14H2,1-2H3,(H,26,31)(H,27,30)/t22-/m0/s1

>  <Ligand InChI Key>
NBBWJEWPUKPHPZ-QFIPXVFZSA-N

>  <BindingDB MonomerID>
11234

>  <Target Name Assigned by Curator or DataSource>
3C-like proteinase (3CL-PRO)

>  <Target Source Organism According to Curator or DataSource>
Human SARS coronavirus

>  <IC50 (nM)>
60

>  <PMID>
32852058

>  <Ligand HET ID in PDB>


>  <PDB ID(s) for Ligand-Target Complex>


>  <PubChem CID>
11317290

>  <PubChem SID>
46511786

>  <ChEMBL ID of Ligand>


>  <DrugBank ID of Ligand>


>  <ZINC ID of Ligand>
ZINC13646492

>  <PDB ID(s) of Target Chain>
1Q2W,1QZ8,1UJ1,1UK2,1UK3,1UK4,1UW7,1WOF,1Z1I,2A5A,2A5I,2A5K,2ACF,2AHM,2ALV,2AMD,2AMQ,2BX3,2BX4,2C3S,2D2D,2DUC,2FAV,2FE8,2FYG,2G9T,2GA6,2GDT,2GRI,2GT7,2GT8,2GTB,2GX4,2GZ7,2GZ8,2GZ9,2H2Z,2HOB,2HSX,2IDY,2JZF,2K7X,2K87,2KAF,2LIZ,2OP9,2OZK,2RNK,2V6N,2VJ1,2XYQ,2XYR,2XYV,2Z3C,2Z3D,2Z3E,2Z94,2Z9G,2Z9J,2Z9K,2Z9L,2ZU4,2ZU5,3D62,3E91,3E9S,3EA7,3EA8,3EBN,3IWM,3M3V,3MJ5,3R24,3SN8,3SNA,3SNB,3SNC,3SND,3SNE,3SZN,3TIT,3TIU,3TNS,3TNT,3V3M,3VB3,3VB4,3VB5,3VB6,3VB7,4MDS,4MM3,4OVZ,4OW0,5C8S,5C8T,5C8U,5F22,5N19,5N5O,5NFY,5TL6,5TL7,5Y3E,5Y3Q,6JYT,6LNQ,6LNY,6LO0,6NUR,6NUS,6W2A,6W79,6WCO,6XHL,6XHN,6XHO,6XMK,6XOA,7AKU,7C2K,7JOY

>  <Smiles>
CN(C)c(cc1)ccc1C(NC(Cc1ccccc1)C(Nc(ccc([N+]([O-])=O)c1)c1Cl)=O)=O

$$$$
429408
Actelion Java MolfileCreator 2.0

  0  0  0  0  0  0              0 V3000
M  V30 BEGIN CTAB
M  V30 COUNTS 56 59 0 0 0
M  V30 BEGIN ATOM
M  V30 1 O 0.0 0.0 0.0 0
M  V30 2 C 0.9675 -1.1209 0.0 0
M  V30 3 N 0.4601 -2.5251 0.0 0
M  V30 4 C 2.4307 -0.8259 0.0 0
M  V30 5 N 1.4277 -3.6461 0.0 0
M  V30 6 C -1.0265 -2.7965 0.0 0
M  V30 7 C 3.3983 -1.9469 0.0 0
M  V30 8 C 2.9145 0.6017 0.0 0
M  V30 9 C 2.8909 -3.3511 0.0 0
M  V30 10 C -2.0177 -1.6519 0.0 0
M  V30 11 C 4.8615 -1.6519 0.0 0
M  V30 12 C 4.3777 0.8967 0.0 0
M  V30 13 O 3.8585 -4.4721 0.0 0
M  V30 14 O -1.5339 -0.2241 0.0 0
M  V30 15 C -3.5045 -1.9233 0.0 0 CFG=1
M  V30 16 C 5.3453 -0.2241 0.0 0
M  V30 17 N -4.4957 -0.7787 0.0 0
M  V30 18 C -4.0119 -3.3275 0.0 0
M  V30 19 C -5.9825 -1.0501 0.0 0
M  V30 20 C -3.0443 -4.4485 0.0 0 CFG=1
M  V30 21 O -6.4899 -2.4543 0.0 0
M  V30 22 C -6.9737 0.0943 0.0 0 CFG=1
M  V30 23 C -3.3983 -5.8999 0.0 0
M  V30 24 C -1.5575 -4.3069 0.0 0
M  V30 25 N -8.4605 -0.1769 0.0 0
M  V30 26 C -6.4899 1.5221 0.0 0
M  V30 27 O -4.7907 -6.4781 0.0 0
M  V30 28 N -2.1239 -6.6669 0.0 0
M  V30 29 C -0.9793 -5.6757 0.0 0
M  V30 30 C -9.4517 0.9675 0.0 0
M  V30 31 C -5.0267 1.8171 0.0 0
M  V30 32 O -8.9679 2.3953 0.0 0
M  V30 33 C -10.9385 0.6961 0.0 0 CFG=1
M  V30 34 C -4.0591 0.6961 0.0 0
M  V30 35 C -4.5429 3.2449 0.0 0
M  V30 36 N -11.4459 -0.7079 0.0 0
M  V30 37 C -11.9297 1.8407 0.0 0
M  V30 38 C -12.9327 -0.9793 0.0 0
M  V30 39 O -13.4164 1.5693 0.0 0
M  V30 40 C -11.4459 3.2685 0.0 0
M  V30 41 O -13.9238 0.1651 0.0 0
M  V30 42 C -13.44 -2.3835 0.0 0 CFG=1
M  V30 43 C -14.4076 2.7139 0.0 0
M  V30 44 N -14.9268 -2.6549 0.0 0
M  V30 45 C -12.4725 -3.5045 0.0 0
M  V30 46 C -13.9238 4.1417 0.0 0
M  V30 47 C -15.4342 -4.0591 0.0 0
M  V30 48 C -12.9799 -4.9087 0.0 0
M  V30 49 C -11.0093 -3.2095 0.0 0
M  V30 50 C -14.915 5.2863 0.0 0
M  V30 51 C -12.4607 4.4367 0.0 0
M  V30 52 O -16.921 -4.3305 0.0 0
M  V30 53 C -14.4666 -5.1801 0.0 0
M  V30 54 C -14.4312 6.7141 0.0 0
M  V30 55 C -11.9769 5.8645 0.0 0
M  V30 56 C -12.9681 7.0091 0.0 0
M  V30 END ATOM
M  V30 BEGIN BOND
M  V30 1 2 1 2
M  V30 2 1 2 3
M  V30 3 1 2 4
M  V30 4 1 3 5
M  V30 5 1 3 6
M  V30 6 2 4 7
M  V30 7 1 4 8
M  V30 8 1 5 9
M  V30 9 1 6 10
M  V30 10 1 7 11
M  V30 11 2 8 12
M  V30 12 2 9 13
M  V30 13 2 10 14
M  V30 14 1 10 15
M  V30 15 2 11 16
M  V30 16 1 15 17 CFG=3
M  V30 17 1 15 18
M  V30 18 1 17 19
M  V30 19 1 20 18 CFG=3
M  V30 20 2 19 21
M  V30 21 1 19 22
M  V30 22 1 20 23
M  V30 23 1 20 24
M  V30 24 1 22 25 CFG=1
M  V30 25 1 22 26
M  V30 26 2 23 27
M  V30 27 1 23 28
M  V30 28 1 24 29
M  V30 29 1 25 30
M  V30 30 1 26 31
M  V30 31 2 30 32
M  V30 32 1 30 33
M  V30 33 1 31 34
M  V30 34 1 31 35
M  V30 35 1 33 36 CFG=1
M  V30 36 1 33 37
M  V30 37 1 36 38
M  V30 38 1 37 39
M  V30 39 1 37 40
M  V30 40 2 38 41
M  V30 41 1 38 42
M  V30 42 1 39 43
M  V30 43 1 42 44 CFG=3
M  V30 44 1 42 45
M  V30 45 1 43 46
M  V30 46 1 44 47
M  V30 47 1 45 48
M  V30 48 1 45 49
M  V30 49 2 46 50
M  V30 50 1 46 51
M  V30 51 2 47 52
M  V30 52 1 47 53
M  V30 53 1 50 54
M  V30 54 2 51 55
M  V30 55 2 54 56
M  V30 56 1 7 9
M  V30 57 1 12 16
M  V30 58 1 28 29
M  V30 59 1 55 56
M  V30 END BOND
M  V30 BEGIN COLLECTION
M  V30 MDLV30/STEABS ATOMS=(5 15 20 22 33 42)
M  V30 END COLLECTION
M  V30 END CTAB
M  END
>  <Ligand InChI>
InChI=1S/C40H53N7O9/c1-22(2)18-31(44-39(54)34(24(5)56-21-26-12-8-7-9-13-26)45-38(53)33(23(3)4)42-25(6)48)37(52)43-30(19-27-16-17-41-35(27)50)32(49)20-47-40(55)29-15-11-10-14-28(29)36(51)46-47/h7-15,22-24,27,30-31,33-34H,16-21H2,1-6H3,(H,41,50)(H,42,48)(H,43,52)(H,44,54)(H,45,53)(H,46,51)/t24?,27-,30-,31-,33-,34-/m0/s1

>  <Ligand InChI Key>
WVCBNUTYVOLXDN-JTKKLOFZSA-N

>  <BindingDB MonomerID>
429408

>  <Target Name Assigned by Curator or DataSource>
3C-like proteinase (3CL-PRO)

>  <Target Source Organism According to Curator or DataSource>
Human SARS coronavirus

>  <IC50 (nM)>
2700

>  <PMID>
32852058

>  <Ligand HET ID in PDB>


>  <PDB ID(s) for Ligand-Target Complex>


>  <PubChem CID>


>  <PubChem SID>


>  <ChEMBL ID of Ligand>


>  <DrugBank ID of Ligand>


>  <ZINC ID of Ligand>


>  <PDB ID(s) of Target Chain>
1Q2W,1QZ8,1UJ1,1UK2,1UK3,1UK4,1UW7,1WOF,1Z1I,2A5A,2A5I,2A5K,2ACF,2AHM,2ALV,2AMD,2AMQ,2BX3,2BX4,2C3S,2D2D,2DUC,2FAV,2FE8,2FYG,2G9T,2GA6,2GDT,2GRI,2GT7,2GT8,2GTB,2GX4,2GZ7,2GZ8,2GZ9,2H2Z,2HOB,2HSX,2IDY,2JZF,2K7X,2K87,2KAF,2LIZ,2OP9,2OZK,2RNK,2V6N,2VJ1,2XYQ,2XYR,2XYV,2Z3C,2Z3D,2Z3E,2Z94,2Z9G,2Z9J,2Z9K,2Z9L,2ZU4,2ZU5,3D62,3E91,3E9S,3EA7,3EA8,3EBN,3IWM,3M3V,3MJ5,3R24,3SN8,3SNA,3SNB,3SNC,3SND,3SNE,3SZN,3TIT,3TIU,3TNS,3TNT,3V3M,3VB3,3VB4,3VB5,3VB6,3VB7,4MDS,4MM3,4OVZ,4OW0,5C8S,5C8T,5C8U,5F22,5N19,5N5O,5NFY,5TL6,5TL7,5Y3E,5Y3Q,6JYT,6LNQ,6LNY,6LO0,6NUR,6NUS,6W2A,6W79,6WCO,6XHL,6XHN,6XHO,6XMK,6XOA,7AKU,7C2K,7JOY

>  <Smiles>
CC(C)C[C@@H](C(N[C@@H](C[C@H](CCN1)C1=O)C(CN(C(c1c2cccc1)=O)NC2=O)=O)=O)NC([C@H](C(C)OCc1ccccc1)NC([C@H](C(C)C)NC(C)=O)=O)=O

$$$$
429409
Actelion Java MolfileCreator 2.0

  0  0  0  0  0  0              0 V3000
M  V30 BEGIN CTAB
M  V30 COUNTS 49 51 0 0 0
M  V30 BEGIN ATOM
M  V30 1 O 0.0 0.0 0.0 0
M  V30 2 C 1.2871 -0.7321 0.0 0
M  V30 3 N 1.2752 -2.2199 0.0 0
M  V30 4 C 2.5742 0.0236 0.0 0
M  V30 5 N 2.5623 -2.9638 0.0 0
M  V30 6 C -0.0354 -2.9638 0.0 0
M  V30 7 C 3.8613 -0.7084 0.0 0
M  V30 8 C 2.5623 1.535 0.0 0
M  V30 9 C 3.8495 -2.1963 0.0 0
M  V30 10 C -1.3461 -2.1963 0.0 0
M  V30 11 C 5.1484 0.0472 0.0 0
M  V30 12 C 3.8495 2.2908 0.0 0
M  V30 13 O 5.1366 -2.9402 0.0 0
M  V30 14 O -1.3579 -0.6848 0.0 0
M  V30 15 C -2.6568 -2.9402 0.0 0 CFG=1
M  V30 16 C 5.1366 1.5586 0.0 0
M  V30 17 N -3.9675 -2.1727 0.0 0
M  V30 18 C -2.6686 -4.4281 0.0 0
M  V30 19 C -5.2783 -2.9166 0.0 0
M  V30 20 C -1.3815 -5.172 0.0 0 CFG=1
M  V30 21 O -5.2901 -4.4044 0.0 0
M  V30 22 C -6.589 -2.1491 0.0 0 CFG=1
M  V30 23 C -1.2398 -6.648 0.0 0
M  V30 24 C -0.0236 -4.5461 0.0 0
M  V30 25 N -7.8997 -2.893 0.0 0
M  V30 26 C -6.6008 -0.6376 0.0 0
M  V30 27 O -2.3616 -7.6399 0.0 0
M  V30 28 N 0.2125 -6.9432 0.0 0
M  V30 29 C 0.9682 -5.6443 0.0 0
M  V30 30 C -9.2104 -2.1254 0.0 0
M  V30 31 C -5.3137 0.118 0.0 0
M  V30 32 O -9.2222 -0.614 0.0 0
M  V30 33 C -10.5211 -2.8694 0.0 0 CFG=1
M  V30 34 C -4.0266 -0.614 0.0 0
M  V30 35 C -5.3255 1.6295 0.0 0
M  V30 36 N -11.8319 -2.1018 0.0 0
M  V30 37 C -10.5329 -4.3572 0.0 0
M  V30 38 C -13.1426 -2.8457 0.0 0
M  V30 39 O -9.2458 -5.1011 0.0 0
M  V30 40 C -11.8437 -5.1011 0.0 0
M  V30 41 O -13.1544 -4.3336 0.0 0
M  V30 42 C -14.4533 -2.0782 0.0 0 CFG=1
M  V30 43 N -15.764 -2.8221 0.0 0
M  V30 44 C -14.4651 -0.5667 0.0 0
M  V30 45 C -17.0747 -2.0546 0.0 0
M  V30 46 C -15.7758 0.1889 0.0 0
M  V30 47 C -13.178 0.1889 0.0 0
M  V30 48 O -17.0866 -0.5431 0.0 0
M  V30 49 C -18.3855 -2.7985 0.0 0
M  V30 END ATOM
M  V30 BEGIN BOND
M  V30 1 2 1 2
M  V30 2 1 2 3
M  V30 3 1 2 4
M  V30 4 1 3 5
M  V30 5 1 3 6
M  V30 6 2 4 7
M  V30 7 1 4 8
M  V30 8 1 5 9
M  V30 9 1 6 10
M  V30 10 1 7 11
M  V30 11 2 8 12
M  V30 12 2 9 13
M  V30 13 2 10 14
M  V30 14 1 10 15
M  V30 15 2 11 16
M  V30 16 1 15 17 CFG=3
M  V30 17 1 15 18
M  V30 18 1 17 19
M  V30 19 1 20 18 CFG=3
M  V30 20 2 19 21
M  V30 21 1 19 22
M  V30 22 1 20 23
M  V30 23 1 20 24
M  V30 24 1 22 25 CFG=1
M  V30 25 1 22 26
M  V30 26 2 23 27
M  V30 27 1 23 28
M  V30 28 1 24 29
M  V30 29 1 25 30
M  V30 30 1 26 31
M  V30 31 2 30 32
M  V30 32 1 30 33
M  V30 33 1 31 34
M  V30 34 1 31 35
M  V30 35 1 33 36 CFG=3
M  V30 36 1 33 37
M  V30 37 1 36 38
M  V30 38 1 37 39
M  V30 39 1 37 40
M  V30 40 2 38 41
M  V30 41 1 38 42
M  V30 42 1 42 43 CFG=1
M  V30 43 1 42 44
M  V30 44 1 43 45
M  V30 45 1 44 46
M  V30 46 1 44 47
M  V30 47 2 45 48
M  V30 48 1 45 49
M  V30 49 1 7 9
M  V30 50 1 12 16
M  V30 51 1 28 29
M  V30 END BOND
M  V30 BEGIN COLLECTION
M  V30 MDLV30/STEABS ATOMS=(5 15 20 22 33 42)
M  V30 END COLLECTION
M  V30 END CTAB
M  END
>  <Ligand InChI>
InChI=1S/C33H47N7O9/c1-16(2)13-24(37-32(48)27(18(5)41)38-31(47)26(17(3)4)35-19(6)42)30(46)36-23(14-20-11-12-34-28(20)44)25(43)15-40-33(49)22-10-8-7-9-21(22)29(45)39-40/h7-10,16-18,20,23-24,26-27,41H,11-15H2,1-6H3,(H,34,44)(H,35,42)(H,36,46)(H,37,48)(H,38,47)(H,39,45)/t18?,20-,23-,24-,26-,27-/m0/s1

>  <Ligand InChI Key>
OJHHBYMVWJMTGA-YAAAGTRMSA-N

>  <BindingDB MonomerID>
429409

>  <Target Name Assigned by Curator or DataSource>
3C-like proteinase (3CL-PRO)

>  <Target Source Organism According to Curator or DataSource>
Human SARS coronavirus

>  <IC50 (nM)>
2900

>  <PMID>
32852058

>  <Ligand HET ID in PDB>


>  <PDB ID(s) for Ligand-Target Complex>


>  <PubChem CID>


>  <PubChem SID>


>  <ChEMBL ID of Ligand>


>  <DrugBank ID of Ligand>


>  <ZINC ID of Ligand>


>  <PDB ID(s) of Target Chain>
1Q2W,1QZ8,1UJ1,1UK2,1UK3,1UK4,1UW7,1WOF,1Z1I,2A5A,2A5I,2A5K,2ACF,2AHM,2ALV,2AMD,2AMQ,2BX3,2BX4,2C3S,2D2D,2DUC,2FAV,2FE8,2FYG,2G9T,2GA6,2GDT,2GRI,2GT7,2GT8,2GTB,2GX4,2GZ7,2GZ8,2GZ9,2H2Z,2HOB,2HSX,2IDY,2JZF,2K7X,2K87,2KAF,2LIZ,2OP9,2OZK,2RNK,2V6N,2VJ1,2XYQ,2XYR,2XYV,2Z3C,2Z3D,2Z3E,2Z94,2Z9G,2Z9J,2Z9K,2Z9L,2ZU4,2ZU5,3D62,3E91,3E9S,3EA7,3EA8,3EBN,3IWM,3M3V,3MJ5,3R24,3SN8,3SNA,3SNB,3SNC,3SND,3SNE,3SZN,3TIT,3TIU,3TNS,3TNT,3V3M,3VB3,3VB4,3VB5,3VB6,3VB7,4MDS,4MM3,4OVZ,4OW0,5C8S,5C8T,5C8U,5F22,5N19,5N5O,5NFY,5TL6,5TL7,5Y3E,5Y3Q,6JYT,6LNQ,6LNY,6LO0,6NUR,6NUS,6W2A,6W79,6WCO,6XHL,6XHN,6XHO,6XMK,6XOA,7AKU,7C2K,7JOY

>  <Smiles>
CC(C)C[C@@H](C(N[C@@H](C[C@H](CCN1)C1=O)C(CN(C(c1c2cccc1)=O)NC2=O)=O)=O)NC([C@H](C(C)O)NC([C@H](C(C)C)NC(C)=O)=O)=O

$$$$
429410
Actelion Java MolfileCreator 2.0

  0  0  0  0  0  0              0 V3000
M  V30 BEGIN CTAB
M  V30 COUNTS 59 62 0 0 0
M  V30 BEGIN ATOM
M  V30 1 O 0.0 0.0 0.0 0
M  V30 2 N 0.4826 1.4243 0.0 0 CHG=1
M  V30 3 O 1.9423 1.7186 0.0 0 CHG=-1
M  V30 4 C -0.5061 2.5662 0.0 0
M  V30 5 C -1.9894 2.2954 0.0 0
M  V30 6 C -0.0235 3.9906 0.0 0
M  V30 7 C -2.4956 0.8946 0.0 0
M  V30 8 C -2.9782 3.4373 0.0 0
M  V30 9 C -1.0123 5.1324 0.0 0
M  V30 10 O -1.5303 -0.2236 0.0 0
M  V30 11 N -3.9788 0.6239 0.0 0
M  V30 12 C -4.4615 3.1666 0.0 0
M  V30 13 C -2.4956 4.8617 0.0 0
M  V30 14 N -4.9676 1.7657 0.0 0
M  V30 15 O -5.4503 4.3084 0.0 0
M  V30 16 C -6.4509 1.495 0.0 0
M  V30 17 C -7.4397 2.6368 0.0 0
M  V30 18 O -6.9571 4.0612 0.0 0
M  V30 19 C -8.923 2.3661 0.0 0 CFG=1
M  V30 20 N -9.9118 3.5079 0.0 0
M  V30 21 C -9.4291 0.9652 0.0 0
M  V30 22 C -11.395 3.2372 0.0 0
M  V30 23 C -8.4639 -0.153 0.0 0 CFG=1
M  V30 24 O -11.9012 1.8363 0.0 0
M  V30 25 C -12.3839 4.379 0.0 0 CFG=1
M  V30 26 C -8.817 -1.6009 0.0 0
M  V30 27 C -6.9806 -0.0117 0.0 0
M  V30 28 N -13.8671 4.1083 0.0 0
M  V30 29 C -11.9012 5.8034 0.0 0
M  V30 30 O -10.2061 -2.1777 0.0 0
M  V30 31 N -7.5457 -2.3661 0.0 0
M  V30 32 C -6.4038 -1.3772 0.0 0
M  V30 33 C -14.8559 5.2502 0.0 0
M  V30 34 C -10.4415 6.0977 0.0 0
M  V30 35 O -14.3733 6.6745 0.0 0
M  V30 36 C -16.3392 4.9794 0.0 0 CFG=1
M  V30 37 C -9.4762 4.9794 0.0 0
M  V30 38 C -9.9589 7.5221 0.0 0
M  V30 39 N -16.8454 3.5786 0.0 0
M  V30 40 C -17.328 6.1213 0.0 0
M  V30 41 C -18.3286 3.3078 0.0 0
M  V30 42 O -18.8112 5.8505 0.0 0
M  V30 43 C -16.8454 7.5457 0.0 0
M  V30 44 O -19.3174 4.4497 0.0 0
M  V30 45 C -18.8348 1.907 0.0 0 CFG=1
M  V30 46 C -19.8001 6.9924 0.0 0
M  V30 47 N -20.318 1.6362 0.0 0
M  V30 48 C -17.8695 0.7887 0.0 0
M  V30 49 C -19.3174 8.4168 0.0 0
M  V30 50 C -20.8242 0.2354 0.0 0
M  V30 51 C -18.3757 -0.6121 0.0 0
M  V30 52 C -16.4098 1.083 0.0 0
M  V30 53 C -20.3063 9.5586 0.0 0
M  V30 54 C -17.8577 8.7111 0.0 0
M  V30 55 O -22.3075 -0.0353 0.0 0
M  V30 56 C -19.8589 -0.8828 0.0 0
M  V30 57 C -19.8236 10.983 0.0 0
M  V30 58 C -17.3751 10.1354 0.0 0
M  V30 59 C -18.3639 11.2773 0.0 0
M  V30 END ATOM
M  V30 BEGIN BOND
M  V30 1 2 1 2
M  V30 2 1 2 3
M  V30 3 1 2 4
M  V30 4 2 4 5
M  V30 5 1 4 6
M  V30 6 1 5 7
M  V30 7 1 5 8
M  V30 8 2 6 9
M  V30 9 2 7 10
M  V30 10 1 7 11
M  V30 11 1 8 12
M  V30 12 2 8 13
M  V30 13 1 11 14
M  V30 14 2 12 15
M  V30 15 1 14 16
M  V30 16 1 16 17
M  V30 17 2 17 18
M  V30 18 1 17 19
M  V30 19 1 19 20 CFG=3
M  V30 20 1 19 21
M  V30 21 1 20 22
M  V30 22 1 23 21 CFG=3
M  V30 23 2 22 24
M  V30 24 1 22 25
M  V30 25 1 23 26
M  V30 26 1 23 27
M  V30 27 1 25 28 CFG=1
M  V30 28 1 25 29
M  V30 29 2 26 30
M  V30 30 1 26 31
M  V30 31 1 27 32
M  V30 32 1 28 33
M  V30 33 1 29 34
M  V30 34 2 33 35
M  V30 35 1 33 36
M  V30 36 1 34 37
M  V30 37 1 34 38
M  V30 38 1 36 39 CFG=1
M  V30 39 1 36 40
M  V30 40 1 39 41
M  V30 41 1 40 42
M  V30 42 1 40 43
M  V30 43 2 41 44
M  V30 44 1 41 45
M  V30 45 1 42 46
M  V30 46 1 45 47 CFG=3
M  V30 47 1 45 48
M  V30 48 1 46 49
M  V30 49 1 47 50
M  V30 50 1 48 51
M  V30 51 1 48 52
M  V30 52 2 49 53
M  V30 53 1 49 54
M  V30 54 2 50 55
M  V30 55 1 50 56
M  V30 56 1 53 57
M  V30 57 2 54 58
M  V30 58 2 57 59
M  V30 59 1 9 13
M  V30 60 1 12 14
M  V30 61 1 31 32
M  V30 62 1 58 59
M  V30 END BOND
M  V30 BEGIN COLLECTION
M  V30 MDLV30/STEABS ATOMS=(5 19 23 25 36 45)
M  V30 END COLLECTION
M  V30 END CTAB
M  END
>  <Ligand InChI>
InChI=1S/C40H52N8O11/c1-21(2)17-29(44-39(55)34(23(5)59-20-25-11-8-7-9-12-25)45-38(54)33(22(3)4)42-24(6)49)36(52)43-28(18-26-15-16-41-35(26)51)31(50)19-47-40(56)27-13-10-14-30(48(57)58)32(27)37(53)46-47/h7-14,21-23,26,28-29,33-34H,15-20H2,1-6H3,(H,41,51)(H,42,49)(H,43,52)(H,44,55)(H,45,54)(H,46,53)/t23?,26-,28-,29-,33-,34-/m0/s1

>  <Ligand InChI Key>
TYWILPQKGVLDRA-VREIQKLASA-N

>  <BindingDB MonomerID>
429410

>  <Target Name Assigned by Curator or DataSource>
3C-like proteinase (3CL-PRO)

>  <Target Source Organism According to Curator or DataSource>
Human SARS coronavirus

>  <IC50 (nM)>
600

>  <PMID>
32852058

>  <Ligand HET ID in PDB>


>  <PDB ID(s) for Ligand-Target Complex>


>  <PubChem CID>


>  <PubChem SID>


>  <ChEMBL ID of Ligand>


>  <DrugBank ID of Ligand>


>  <ZINC ID of Ligand>


>  <PDB ID(s) of Target Chain>
1Q2W,1QZ8,1UJ1,1UK2,1UK3,1UK4,1UW7,1WOF,1Z1I,2A5A,2A5I,2A5K,2ACF,2AHM,2ALV,2AMD,2AMQ,2BX3,2BX4,2C3S,2D2D,2DUC,2FAV,2FE8,2FYG,2G9T,2GA6,2GDT,2GRI,2GT7,2GT8,2GTB,2GX4,2GZ7,2GZ8,2GZ9,2H2Z,2HOB,2HSX,2IDY,2JZF,2K7X,2K87,2KAF,2LIZ,2OP9,2OZK,2RNK,2V6N,2VJ1,2XYQ,2XYR,2XYV,2Z3C,2Z3D,2Z3E,2Z94,2Z9G,2Z9J,2Z9K,2Z9L,2ZU4,2ZU5,3D62,3E91,3E9S,3EA7,3EA8,3EBN,3IWM,3M3V,3MJ5,3R24,3SN8,3SNA,3SNB,3SNC,3SND,3SNE,3SZN,3TIT,3TIU,3TNS,3TNT,3V3M,3VB3,3VB4,3VB5,3VB6,3VB7,4MDS,4MM3,4OVZ,4OW0,5C8S,5C8T,5C8U,5F22,5N19,5N5O,5NFY,5TL6,5TL7,5Y3E,5Y3Q,6JYT,6LNQ,6LNY,6LO0,6NUR,6NUS,6W2A,6W79,6WCO,6XHL,6XHN,6XHO,6XMK,6XOA,7AKU,7C2K,7JOY

>  <Smiles>
CC(C)C[C@@H](C(N[C@@H](C[C@H](CCN1)C1=O)C(CN(C(c1cccc([N+]([O-])=O)c11)=O)NC1=O)=O)=O)NC([C@H](C(C)OCc1ccccc1)NC([C@H](C(C)C)NC(C)=O)=O)=O

$$$$
429411
Actelion Java MolfileCreator 2.0

  0  0  0  0  0  0              0 V3000
M  V30 BEGIN CTAB
M  V30 COUNTS 52 54 0 0 0
M  V30 BEGIN ATOM
M  V30 1 O 0.0 0.0 0.0 0
M  V30 2 N -0.0117 1.508 0.0 0 CHG=1
M  V30 3 O 1.2724 2.2621 0.0 0 CHG=-1
M  V30 4 C -1.3195 2.2621 0.0 0
M  V30 5 C -2.6273 1.5316 0.0 0
M  V30 6 C -1.3313 3.7702 0.0 0
M  V30 7 C -2.6391 0.0471 0.0 0
M  V30 8 C -3.9351 2.2857 0.0 0
M  V30 9 C -2.6391 4.5242 0.0 0
M  V30 10 O -1.3549 -0.6951 0.0 0
M  V30 11 N -3.9469 -0.6951 0.0 0
M  V30 12 C -5.2429 1.5552 0.0 0
M  V30 13 C -3.9469 3.7938 0.0 0
M  V30 14 N -5.2547 0.0706 0.0 0
M  V30 15 O -6.5507 2.3092 0.0 0
M  V30 16 C -6.5625 -0.6715 0.0 0
M  V30 17 C -7.8703 0.0942 0.0 0
M  V30 18 O -7.8821 1.6023 0.0 0
M  V30 19 C -9.1781 -0.648 0.0 0 CFG=1
M  V30 20 N -10.4859 0.1178 0.0 0
M  V30 21 C -9.1899 -2.1325 0.0 0
M  V30 22 C -11.7937 -0.6244 0.0 0
M  V30 23 C -7.9057 -2.8748 0.0 0 CFG=1
M  V30 24 O -11.8055 -2.1089 0.0 0
M  V30 25 C -13.1015 0.1413 0.0 0 CFG=1
M  V30 26 C -7.7643 -4.3475 0.0 0
M  V30 27 C -6.5507 -2.2503 0.0 0
M  V30 28 N -14.4093 -0.6008 0.0 0
M  V30 29 C -13.1133 1.6494 0.0 0
M  V30 30 O -8.8836 -5.3372 0.0 0
M  V30 31 N -6.3151 -4.6421 0.0 0
M  V30 32 C -5.561 -3.346 0.0 0
M  V30 33 C -15.7171 0.1649 0.0 0
M  V30 34 C -11.8291 2.4035 0.0 0
M  V30 35 O -15.7289 1.673 0.0 0
M  V30 36 C -17.0249 -0.5773 0.0 0 CFG=1
M  V30 37 C -10.5448 1.673 0.0 0
M  V30 38 C -11.8408 3.9116 0.0 0
M  V30 39 N -18.3327 0.1885 0.0 0
M  V30 40 C -17.0367 -2.0618 0.0 0
M  V30 41 C -19.6405 -0.5537 0.0 0
M  V30 42 O -15.7525 -2.8041 0.0 0
M  V30 43 C -18.3445 -2.8041 0.0 0
M  V30 44 O -19.6523 -2.0382 0.0 0
M  V30 45 C -20.9483 0.212 0.0 0 CFG=1
M  V30 46 N -22.2561 -0.5301 0.0 0
M  V30 47 C -20.9601 1.7201 0.0 0
M  V30 48 C -23.5639 0.2356 0.0 0
M  V30 49 C -22.2679 2.4742 0.0 0
M  V30 50 C -19.6759 2.4742 0.0 0
M  V30 51 O -23.5757 1.7437 0.0 0
M  V30 52 C -24.8717 -0.5066 0.0 0
M  V30 END ATOM
M  V30 BEGIN BOND
M  V30 1 2 1 2
M  V30 2 1 2 3
M  V30 3 1 2 4
M  V30 4 2 4 5
M  V30 5 1 4 6
M  V30 6 1 5 7
M  V30 7 1 5 8
M  V30 8 2 6 9
M  V30 9 2 7 10
M  V30 10 1 7 11
M  V30 11 1 8 12
M  V30 12 2 8 13
M  V30 13 1 11 14
M  V30 14 2 12 15
M  V30 15 1 14 16
M  V30 16 1 16 17
M  V30 17 2 17 18
M  V30 18 1 17 19
M  V30 19 1 19 20 CFG=3
M  V30 20 1 19 21
M  V30 21 1 20 22
M  V30 22 1 23 21 CFG=3
M  V30 23 2 22 24
M  V30 24 1 22 25
M  V30 25 1 23 26
M  V30 26 1 23 27
M  V30 27 1 25 28 CFG=1
M  V30 28 1 25 29
M  V30 29 2 26 30
M  V30 30 1 26 31
M  V30 31 1 27 32
M  V30 32 1 28 33
M  V30 33 1 29 34
M  V30 34 2 33 35
M  V30 35 1 33 36
M  V30 36 1 34 37
M  V30 37 1 34 38
M  V30 38 1 36 39 CFG=3
M  V30 39 1 36 40
M  V30 40 1 39 41
M  V30 41 1 40 42
M  V30 42 1 40 43
M  V30 43 2 41 44
M  V30 44 1 41 45
M  V30 45 1 45 46 CFG=1
M  V30 46 1 45 47
M  V30 47 1 46 48
M  V30 48 1 47 49
M  V30 49 1 47 50
M  V30 50 2 48 51
M  V30 51 1 48 52
M  V30 52 1 9 13
M  V30 53 1 12 14
M  V30 54 1 31 32
M  V30 END BOND
M  V30 BEGIN COLLECTION
M  V30 MDLV30/STEABS ATOMS=(5 19 23 25 36 45)
M  V30 END COLLECTION
M  V30 END CTAB
M  END
>  <Ligand InChI>
InChI=1S/C33H46N8O11/c1-15(2)12-22(37-32(49)27(17(5)42)38-31(48)26(16(3)4)35-18(6)43)29(46)36-21(13-19-10-11-34-28(19)45)24(44)14-40-33(50)20-8-7-9-23(41(51)52)25(20)30(47)39-40/h7-9,15-17,19,21-22,26-27,42H,10-14H2,1-6H3,(H,34,45)(H,35,43)(H,36,46)(H,37,49)(H,38,48)(H,39,47)/t17?,19-,21-,22-,26-,27-/m0/s1

>  <Ligand InChI Key>
WLFJZNRFNKLNOW-LNSIDSAXSA-N

>  <BindingDB MonomerID>
429411

>  <Target Name Assigned by Curator or DataSource>
3C-like proteinase (3CL-PRO)

>  <Target Source Organism According to Curator or DataSource>
Human SARS coronavirus

>  <IC50 (nM)>
3400

>  <PMID>
32852058

>  <Ligand HET ID in PDB>


>  <PDB ID(s) for Ligand-Target Complex>


>  <PubChem CID>


>  <PubChem SID>


>  <ChEMBL ID of Ligand>


>  <DrugBank ID of Ligand>


>  <ZINC ID of Ligand>


>  <PDB ID(s) of Target Chain>
1Q2W,1QZ8,1UJ1,1UK2,1UK3,1UK4,1UW7,1WOF,1Z1I,2A5A,2A5I,2A5K,2ACF,2AHM,2ALV,2AMD,2AMQ,2BX3,2BX4,2C3S,2D2D,2DUC,2FAV,2FE8,2FYG,2G9T,2GA6,2GDT,2GRI,2GT7,2GT8,2GTB,2GX4,2GZ7,2GZ8,2GZ9,2H2Z,2HOB,2HSX,2IDY,2JZF,2K7X,2K87,2KAF,2LIZ,2OP9,2OZK,2RNK,2V6N,2VJ1,2XYQ,2XYR,2XYV,2Z3C,2Z3D,2Z3E,2Z94,2Z9G,2Z9J,2Z9K,2Z9L,2ZU4,2ZU5,3D62,3E91,3E9S,3EA7,3EA8,3EBN,3IWM,3M3V,3MJ5,3R24,3SN8,3SNA,3SNB,3SNC,3SND,3SNE,3SZN,3TIT,3TIU,3TNS,3TNT,3V3M,3VB3,3VB4,3VB5,3VB6,3VB7,4MDS,4MM3,4OVZ,4OW0,5C8S,5C8T,5C8U,5F22,5N19,5N5O,5NFY,5TL6,5TL7,5Y3E,5Y3Q,6JYT,6LNQ,6LNY,6LO0,6NUR,6NUS,6W2A,6W79,6WCO,6XHL,6XHN,6XHO,6XMK,6XOA,7AKU,7C2K,7JOY

>  <Smiles>
CC(C)C[C@@H](C(N[C@@H](C[C@H](CCN1)C1=O)C(CN(C(c1cccc([N+]([O-])=O)c11)=O)NC1=O)=O)=O)NC([C@H](C(C)O)NC([C@H](C(C)C)NC(C)=O)=O)=O

$$$$
429299
Actelion Java MolfileCreator 2.0

  0  0  0  0  0  0              0 V3000
M  V30 BEGIN CTAB
M  V30 COUNTS 15 16 0 0 0
M  V30 BEGIN ATOM
M  V30 1 Cl 0.0 0.0 0.0 0
M  V30 2 C -1.3139 -0.7339 0.0 0
M  V30 3 C -2.6278 0.0236 0.0 0
M  V30 4 C -1.3257 -2.2253 0.0 0
M  V30 5 N -3.9417 -0.7102 0.0 0
M  V30 6 C -2.6396 -2.9592 0.0 0
M  V30 7 C -3.9536 -2.2017 0.0 0
M  V30 8 O -2.6515 -4.4507 0.0 0
M  V30 9 C -1.3612 -5.1846 0.0 0
M  V30 10 O -0.071 -4.427 0.0 0
M  V30 11 C -1.3731 -6.6761 0.0 0
M  V30 12 S -2.6041 -7.552 0.0 0
M  V30 13 C -0.1657 -7.552 0.0 0
M  V30 14 C -2.1543 -8.9725 0.0 0
M  V30 15 C -0.6392 -8.9725 0.0 0
M  V30 END ATOM
M  V30 BEGIN BOND
M  V30 1 1 1 2
M  V30 2 2 2 3
M  V30 3 1 2 4
M  V30 4 1 3 5
M  V30 5 2 4 6
M  V30 6 2 5 7
M  V30 7 1 6 8
M  V30 8 1 8 9
M  V30 9 2 9 10
M  V30 10 1 9 11
M  V30 11 1 11 12
M  V30 12 2 11 13
M  V30 13 1 12 14
M  V30 14 1 13 15
M  V30 15 1 6 7
M  V30 16 2 14 15
M  V30 END BOND
M  V30 END CTAB
M  END
>  <Ligand InChI>
InChI=1S/C10H6ClNO2S/c11-7-4-8(6-12-5-7)14-10(13)9-2-1-3-15-9/h1-6H

>  <Ligand InChI Key>
PAVJYVVZIJTAHT-UHFFFAOYSA-N

>  <BindingDB MonomerID>
429299

>  <Target Name Assigned by Curator or DataSource>
3C-like proteinase (3CL-PRO)

>  <Target Source Organism According to Curator or DataSource>
Human SARS coronavirus

>  <IC50 (nM)>
500

>  <PMID>
32852058

>  <Ligand HET ID in PDB>


>  <PDB ID(s) for Ligand-Target Complex>


>  <PubChem CID>


>  <PubChem SID>


>  <ChEMBL ID of Ligand>


>  <DrugBank ID of Ligand>


>  <ZINC ID of Ligand>


>  <PDB ID(s) of Target Chain>
1Q2W,1QZ8,1UJ1,1UK2,1UK3,1UK4,1UW7,1WOF,1Z1I,2A5A,2A5I,2A5K,2ACF,2AHM,2ALV,2AMD,2AMQ,2BX3,2BX4,2C3S,2D2D,2DUC,2FAV,2FE8,2FYG,2G9T,2GA6,2GDT,2GRI,2GT7,2GT8,2GTB,2GX4,2GZ7,2GZ8,2GZ9,2H2Z,2HOB,2HSX,2IDY,2JZF,2K7X,2K87,2KAF,2LIZ,2OP9,2OZK,2RNK,2V6N,2VJ1,2XYQ,2XYR,2XYV,2Z3C,2Z3D,2Z3E,2Z94,2Z9G,2Z9J,2Z9K,2Z9L,2ZU4,2ZU5,3D62,3E91,3E9S,3EA7,3EA8,3EBN,3IWM,3M3V,3MJ5,3R24,3SN8,3SNA,3SNB,3SNC,3SND,3SNE,3SZN,3TIT,3TIU,3TNS,3TNT,3V3M,3VB3,3VB4,3VB5,3VB6,3VB7,4MDS,4MM3,4OVZ,4OW0,5C8S,5C8T,5C8U,5F22,5N19,5N5O,5NFY,5TL6,5TL7,5Y3E,5Y3Q,6JYT,6LNQ,6LNY,6LO0,6NUR,6NUS,6W2A,6W79,6WCO,6XHL,6XHN,6XHO,6XMK,6XOA,7AKU,7C2K,7JOY

>  <Smiles>
O=C(c1cccs1)Oc1cc(Cl)cnc1

$$$$
32805
Actelion Java MolfileCreator 2.0

  0  0  0  0  0  0              0 V3000
M  V30 BEGIN CTAB
M  V30 COUNTS 15 16 0 0 0
M  V30 BEGIN ATOM
M  V30 1 Cl 0.0 0.0 0.0 0
M  V30 2 C 1.2861 0.7551 0.0 0
M  V30 3 C 2.5722 0.0235 0.0 0
M  V30 4 C 1.2743 2.2654 0.0 0
M  V30 5 N 3.8584 0.7787 0.0 0
M  V30 6 C 2.5604 3.0206 0.0 0
M  V30 7 C 3.8466 2.289 0.0 0
M  V30 8 O 2.5486 4.5309 0.0 0
M  V30 9 C 3.8348 5.2861 0.0 0
M  V30 10 O 5.1209 4.5545 0.0 0
M  V30 11 C 3.823 6.7964 0.0 0
M  V30 12 O 2.5958 7.6932 0.0 0
M  V30 13 C 5.0265 7.6932 0.0 0
M  V30 14 C 3.0442 9.1327 0.0 0
M  V30 15 C 4.5545 9.1327 0.0 0
M  V30 END ATOM
M  V30 BEGIN BOND
M  V30 1 1 1 2
M  V30 2 2 2 3
M  V30 3 1 2 4
M  V30 4 1 3 5
M  V30 5 2 4 6
M  V30 6 2 5 7
M  V30 7 1 6 8
M  V30 8 1 8 9
M  V30 9 2 9 10
M  V30 10 1 9 11
M  V30 11 1 11 12
M  V30 12 2 11 13
M  V30 13 1 12 14
M  V30 14 1 13 15
M  V30 15 1 6 7
M  V30 16 2 14 15
M  V30 END BOND
M  V30 END CTAB
M  END
>  <Ligand InChI>
InChI=1S/C10H6ClNO3/c11-7-4-8(6-12-5-7)15-10(13)9-2-1-3-14-9/h1-6H

>  <Ligand InChI Key>
DWJOEJDGHVXXEB-UHFFFAOYSA-N

>  <BindingDB MonomerID>
32805

>  <Target Name Assigned by Curator or DataSource>
3C-like proteinase (3CL-PRO)

>  <Target Source Organism According to Curator or DataSource>
Human SARS coronavirus

>  <IC50 (nM)>
60

>  <PMID>
32852058

>  <Ligand HET ID in PDB>


>  <PDB ID(s) for Ligand-Target Complex>


>  <PubChem CID>
7230550

>  <PubChem SID>
252615941

>  <ChEMBL ID of Ligand>
CHEMBL222840

>  <DrugBank ID of Ligand>


>  <ZINC ID of Ligand>
ZINC04419293

>  <PDB ID(s) of Target Chain>
1Q2W,1QZ8,1UJ1,1UK2,1UK3,1UK4,1UW7,1WOF,1Z1I,2A5A,2A5I,2A5K,2ACF,2AHM,2ALV,2AMD,2AMQ,2BX3,2BX4,2C3S,2D2D,2DUC,2FAV,2FE8,2FYG,2G9T,2GA6,2GDT,2GRI,2GT7,2GT8,2GTB,2GX4,2GZ7,2GZ8,2GZ9,2H2Z,2HOB,2HSX,2IDY,2JZF,2K7X,2K87,2KAF,2LIZ,2OP9,2OZK,2RNK,2V6N,2VJ1,2XYQ,2XYR,2XYV,2Z3C,2Z3D,2Z3E,2Z94,2Z9G,2Z9J,2Z9K,2Z9L,2ZU4,2ZU5,3D62,3E91,3E9S,3EA7,3EA8,3EBN,3IWM,3M3V,3MJ5,3R24,3SN8,3SNA,3SNB,3SNC,3SND,3SNE,3SZN,3TIT,3TIU,3TNS,3TNT,3V3M,3VB3,3VB4,3VB5,3VB6,3VB7,4MDS,4MM3,4OVZ,4OW0,5C8S,5C8T,5C8U,5F22,5N19,5N5O,5NFY,5TL6,5TL7,5Y3E,5Y3Q,6JYT,6LNQ,6LNY,6LO0,6NUR,6NUS,6W2A,6W79,6WCO,6XHL,6XHN,6XHO,6XMK,6XOA,7AKU,7C2K,7JOY

>  <Smiles>
O=C(c1ccco1)Oc1cc(Cl)cnc1

$$$$
50208939
Actelion Java MolfileCreator 2.0

  0  0  0  0  0  0              0 V3000
M  V30 BEGIN CTAB
M  V30 COUNTS 19 21 0 0 0
M  V30 BEGIN ATOM
M  V30 1 Cl 0.0 0.0 0.0 0
M  V30 2 C -1.3035 -0.7347 0.0 0
M  V30 3 C -1.3154 -2.2279 0.0 0
M  V30 4 C -2.6071 0.0237 0.0 0
M  V30 5 N -2.6308 -2.9626 0.0 0
M  V30 6 C -3.9106 -0.711 0.0 0
M  V30 7 C -3.9343 -2.2042 0.0 0
M  V30 8 O -5.2142 0.0474 0.0 0
M  V30 9 C -6.5178 -0.6873 0.0 0
M  V30 10 O -6.5296 -2.1686 0.0 0
M  V30 11 C -7.8213 0.0711 0.0 0
M  V30 12 N -9.196 -0.5214 0.0 0
M  V30 13 C -7.9872 1.5642 0.0 0
M  V30 14 C -10.2033 0.6043 0.0 0
M  V30 15 C -9.4567 1.8842 0.0 0
M  V30 16 C -11.7083 0.6162 0.0 0
M  V30 17 C -10.2151 3.1878 0.0 0
M  V30 18 C -12.4667 1.9197 0.0 0
M  V30 19 C -11.7202 3.1996 0.0 0
M  V30 END ATOM
M  V30 BEGIN BOND
M  V30 1 1 1 2
M  V30 2 2 2 3
M  V30 3 1 2 4
M  V30 4 1 3 5
M  V30 5 2 4 6
M  V30 6 2 5 7
M  V30 7 1 6 8
M  V30 8 1 8 9
M  V30 9 2 9 10
M  V30 10 1 9 11
M  V30 11 1 11 12
M  V30 12 2 11 13
M  V30 13 1 12 14
M  V30 14 1 13 15
M  V30 15 1 14 16
M  V30 16 1 15 17
M  V30 17 2 16 18
M  V30 18 2 17 19
M  V30 19 1 6 7
M  V30 20 2 14 15
M  V30 21 1 18 19
M  V30 END BOND
M  V30 END CTAB
M  END
>  <Ligand InChI>
InChI=1S/C14H9ClN2O2/c15-10-6-11(8-16-7-10)19-14(18)13-5-9-3-1-2-4-12(9)17-13/h1-8,17H

>  <Ligand InChI Key>
LJTINUKMKJKLBT-UHFFFAOYSA-N

>  <BindingDB MonomerID>
50208939

>  <Target Name Assigned by Curator or DataSource>
3C-like proteinase (3CL-PRO)

>  <Target Source Organism According to Curator or DataSource>
Human SARS coronavirus

>  <IC50 (nM)>
65

>  <PMID>
32852058

>  <Ligand HET ID in PDB>


>  <PDB ID(s) for Ligand-Target Complex>


>  <PubChem CID>
16204322

>  <PubChem SID>
104085862

>  <ChEMBL ID of Ligand>
CHEMBL225515

>  <DrugBank ID of Ligand>


>  <ZINC ID of Ligand>
ZINC40585265

>  <PDB ID(s) of Target Chain>
1Q2W,1QZ8,1UJ1,1UK2,1UK3,1UK4,1UW7,1WOF,1Z1I,2A5A,2A5I,2A5K,2ACF,2AHM,2ALV,2AMD,2AMQ,2BX3,2BX4,2C3S,2D2D,2DUC,2FAV,2FE8,2FYG,2G9T,2GA6,2GDT,2GRI,2GT7,2GT8,2GTB,2GX4,2GZ7,2GZ8,2GZ9,2H2Z,2HOB,2HSX,2IDY,2JZF,2K7X,2K87,2KAF,2LIZ,2OP9,2OZK,2RNK,2V6N,2VJ1,2XYQ,2XYR,2XYV,2Z3C,2Z3D,2Z3E,2Z94,2Z9G,2Z9J,2Z9K,2Z9L,2ZU4,2ZU5,3D62,3E91,3E9S,3EA7,3EA8,3EBN,3IWM,3M3V,3MJ5,3R24,3SN8,3SNA,3SNB,3SNC,3SND,3SNE,3SZN,3TIT,3TIU,3TNS,3TNT,3V3M,3VB3,3VB4,3VB5,3VB6,3VB7,4MDS,4MM3,4OVZ,4OW0,5C8S,5C8T,5C8U,5F22,5N19,5N5O,5NFY,5TL6,5TL7,5Y3E,5Y3Q,6JYT,6LNQ,6LNY,6LO0,6NUR,6NUS,6W2A,6W79,6WCO,6XHL,6XHN,6XHO,6XMK,6XOA,7AKU,7C2K,7JOY

>  <Smiles>
O=C(c1cc(cccc2)c2[nH]1)Oc1cc(Cl)cnc1

$$$$
50208942
Actelion Java MolfileCreator 2.0

  0  0  0  0  0  0              0 V3000
M  V30 BEGIN CTAB
M  V30 COUNTS 22 24 0 0 0
M  V30 BEGIN ATOM
M  V30 1 Cl 0.0 0.0 0.0 0
M  V30 2 C -1.3028 -0.7461 0.0 0
M  V30 3 C -1.3146 -2.2385 0.0 0
M  V30 4 C -2.6175 0.0 0.0 0
M  V30 5 N -2.6293 -2.9728 0.0 0
M  V30 6 C -3.9085 -0.7343 0.0 0
M  V30 7 C -3.9322 -2.2148 0.0 0
M  V30 8 O -5.2114 0.0236 0.0 0
M  V30 9 C -6.5142 -0.7106 0.0 0
M  V30 10 O -6.526 -2.1911 0.0 0
M  V30 11 C -7.8171 0.0473 0.0 0
M  V30 12 O -7.9947 1.5397 0.0 0
M  V30 13 C -9.191 -0.5448 0.0 0
M  V30 14 C -9.4634 1.8595 0.0 0
M  V30 15 C -10.1977 0.5803 0.0 0
M  V30 16 C -10.0793 3.2334 0.0 0
M  V30 17 C -9.2147 4.4533 0.0 0
M  V30 18 C -11.5716 3.3992 0.0 0
M  V30 19 C -9.8306 5.8272 0.0 0
M  V30 20 C -12.1994 4.7731 0.0 0
M  V30 21 C -11.3348 5.9931 0.0 0
M  V30 22 Cl -11.9625 7.367 0.0 0
M  V30 END ATOM
M  V30 BEGIN BOND
M  V30 1 1 1 2
M  V30 2 2 2 3
M  V30 3 1 2 4
M  V30 4 1 3 5
M  V30 5 2 4 6
M  V30 6 2 5 7
M  V30 7 1 6 8
M  V30 8 1 8 9
M  V30 9 2 9 10
M  V30 10 1 9 11
M  V30 11 1 11 12
M  V30 12 2 11 13
M  V30 13 1 12 14
M  V30 14 1 13 15
M  V30 15 1 14 16
M  V30 16 2 16 17
M  V30 17 1 16 18
M  V30 18 1 17 19
M  V30 19 2 18 20
M  V30 20 2 19 21
M  V30 21 1 21 22
M  V30 22 1 6 7
M  V30 23 2 14 15
M  V30 24 1 20 21
M  V30 END BOND
M  V30 END CTAB
M  END
>  <Ligand InChI>
InChI=1S/C16H9Cl2NO3/c17-11-3-1-10(2-4-11)14-5-6-15(22-14)16(20)21-13-7-12(18)8-19-9-13/h1-9H

>  <Ligand InChI Key>
UICFGOSRHHZBHZ-UHFFFAOYSA-N

>  <BindingDB MonomerID>
50208942

>  <Target Name Assigned by Curator or DataSource>
3C-like proteinase (3CL-PRO)

>  <Target Source Organism According to Curator or DataSource>
Human SARS coronavirus

>  <IC50 (nM)>
63

>  <PMID>
32852058

>  <Ligand HET ID in PDB>


>  <PDB ID(s) for Ligand-Target Complex>


>  <PubChem CID>
16203797

>  <PubChem SID>
104085865

>  <ChEMBL ID of Ligand>
CHEMBL222769

>  <DrugBank ID of Ligand>


>  <ZINC ID of Ligand>
ZINC40585026

>  <PDB ID(s) of Target Chain>
1Q2W,1QZ8,1UJ1,1UK2,1UK3,1UK4,1UW7,1WOF,1Z1I,2A5A,2A5I,2A5K,2ACF,2AHM,2ALV,2AMD,2AMQ,2BX3,2BX4,2C3S,2D2D,2DUC,2FAV,2FE8,2FYG,2G9T,2GA6,2GDT,2GRI,2GT7,2GT8,2GTB,2GX4,2GZ7,2GZ8,2GZ9,2H2Z,2HOB,2HSX,2IDY,2JZF,2K7X,2K87,2KAF,2LIZ,2OP9,2OZK,2RNK,2V6N,2VJ1,2XYQ,2XYR,2XYV,2Z3C,2Z3D,2Z3E,2Z94,2Z9G,2Z9J,2Z9K,2Z9L,2ZU4,2ZU5,3D62,3E91,3E9S,3EA7,3EA8,3EBN,3IWM,3M3V,3MJ5,3R24,3SN8,3SNA,3SNB,3SNC,3SND,3SNE,3SZN,3TIT,3TIU,3TNS,3TNT,3V3M,3VB3,3VB4,3VB5,3VB6,3VB7,4MDS,4MM3,4OVZ,4OW0,5C8S,5C8T,5C8U,5F22,5N19,5N5O,5NFY,5TL6,5TL7,5Y3E,5Y3Q,6JYT,6LNQ,6LNY,6LO0,6NUR,6NUS,6W2A,6W79,6WCO,6XHL,6XHN,6XHO,6XMK,6XOA,7AKU,7C2K,7JOY

>  <Smiles>
O=C(c1ccc(-c(cc2)ccc2Cl)o1)Oc1cc(Cl)cnc1

$$$$
429304
Actelion Java MolfileCreator 2.0

  0  0  0  0  0  0              0 V3000
M  V30 BEGIN CTAB
M  V30 COUNTS 19 21 0 0 0
M  V30 BEGIN ATOM
M  V30 1 Cl 0.0 0.0 0.0 0
M  V30 2 C 1.2833 0.7535 0.0 0
M  V30 3 C 2.5666 0.0235 0.0 0
M  V30 4 C 1.2715 2.2605 0.0 0
M  V30 5 N 3.85 0.777 0.0 0
M  V30 6 C 2.5549 3.0258 0.0 0
M  V30 7 C 3.8382 2.2841 0.0 0
M  V30 8 O 2.5431 4.5329 0.0 0
M  V30 9 C 1.2362 5.2864 0.0 0
M  V30 10 O -0.0706 4.5446 0.0 0
M  V30 11 C 1.2244 6.7934 0.0 0
M  V30 12 C -0.0824 7.5469 0.0 0
M  V30 13 C 2.5078 7.5469 0.0 0
M  V30 14 C -0.0941 9.054 0.0 0
M  V30 15 C -1.5188 7.0995 0.0 0
M  V30 16 C 2.496 9.054 0.0 0
M  V30 17 N -1.5305 9.5249 0.0 0
M  V30 18 C 1.1891 9.8075 0.0 0
M  V30 19 C -2.4136 8.324 0.0 0
M  V30 END ATOM
M  V30 BEGIN BOND
M  V30 1 1 1 2
M  V30 2 2 2 3
M  V30 3 1 2 4
M  V30 4 1 3 5
M  V30 5 2 4 6
M  V30 6 2 5 7
M  V30 7 1 6 8
M  V30 8 1 8 9
M  V30 9 2 9 10
M  V30 10 1 9 11
M  V30 11 1 11 12
M  V30 12 2 11 13
M  V30 13 1 12 14
M  V30 14 1 12 15
M  V30 15 1 13 16
M  V30 16 2 14 17
M  V30 17 1 14 18
M  V30 18 2 15 19
M  V30 19 1 6 7
M  V30 20 2 16 18
M  V30 21 1 17 19
M  V30 END BOND
M  V30 END CTAB
M  END
>  <Ligand InChI>
InChI=1S/C14H9ClN2O2/c15-9-6-10(8-16-7-9)19-14(18)12-2-1-3-13-11(12)4-5-17-13/h1-8,17H

>  <Ligand InChI Key>
BOSZJNSICHFHMA-UHFFFAOYSA-N

>  <BindingDB MonomerID>
429304

>  <Target Name Assigned by Curator or DataSource>
3C-like proteinase (3CL-PRO)

>  <Target Source Organism According to Curator or DataSource>
Human SARS coronavirus

>  <IC50 (nM)>
30

>  <PMID>
32852058

>  <Ligand HET ID in PDB>


>  <PDB ID(s) for Ligand-Target Complex>


>  <PubChem CID>


>  <PubChem SID>


>  <ChEMBL ID of Ligand>


>  <DrugBank ID of Ligand>


>  <ZINC ID of Ligand>


>  <PDB ID(s) of Target Chain>
1Q2W,1QZ8,1UJ1,1UK2,1UK3,1UK4,1UW7,1WOF,1Z1I,2A5A,2A5I,2A5K,2ACF,2AHM,2ALV,2AMD,2AMQ,2BX3,2BX4,2C3S,2D2D,2DUC,2FAV,2FE8,2FYG,2G9T,2GA6,2GDT,2GRI,2GT7,2GT8,2GTB,2GX4,2GZ7,2GZ8,2GZ9,2H2Z,2HOB,2HSX,2IDY,2JZF,2K7X,2K87,2KAF,2LIZ,2OP9,2OZK,2RNK,2V6N,2VJ1,2XYQ,2XYR,2XYV,2Z3C,2Z3D,2Z3E,2Z94,2Z9G,2Z9J,2Z9K,2Z9L,2ZU4,2ZU5,3D62,3E91,3E9S,3EA7,3EA8,3EBN,3IWM,3M3V,3MJ5,3R24,3SN8,3SNA,3SNB,3SNC,3SND,3SNE,3SZN,3TIT,3TIU,3TNS,3TNT,3V3M,3VB3,3VB4,3VB5,3VB6,3VB7,4MDS,4MM3,4OVZ,4OW0,5C8S,5C8T,5C8U,5F22,5N19,5N5O,5NFY,5TL6,5TL7,5Y3E,5Y3Q,6JYT,6LNQ,6LNY,6LO0,6NUR,6NUS,6W2A,6W79,6WCO,6XHL,6XHN,6XHO,6XMK,6XOA,7AKU,7C2K,7JOY

>  <Smiles>
O=C(C1=CC=CC2=NC=CC12)Oc1cc(Cl)cnc1

$$$$
429306
Actelion Java MolfileCreator 2.0

  0  0  0  0  0  0              0 V3000
M  V30 BEGIN CTAB
M  V30 COUNTS 19 21 0 0 0
M  V30 BEGIN ATOM
M  V30 1 Cl 0.0 0.0 0.0 0
M  V30 2 C -1.3071 0.7654 0.0 0
M  V30 3 C -1.3189 2.2728 0.0 0
M  V30 4 C -2.6143 0.0235 0.0 0
M  V30 5 N -2.6261 3.0264 0.0 0
M  V30 6 C -3.9214 0.789 0.0 0
M  V30 7 C -3.9332 2.2963 0.0 0
M  V30 8 O -5.2286 0.0471 0.0 0
M  V30 9 C -5.2404 -1.4367 0.0 0
M  V30 10 O -3.9568 -2.1668 0.0 0
M  V30 11 C -6.5475 -2.1668 0.0 0
M  V30 12 C -7.8547 -1.4131 0.0 0
M  V30 13 C -6.5593 -3.6506 0.0 0
M  V30 14 C -9.1619 -2.1432 0.0 0
M  V30 15 C -7.8665 -4.3807 0.0 0
M  V30 16 C -9.1736 -3.627 0.0 0
M  V30 17 C -10.5986 -1.6722 0.0 0
M  V30 18 N -10.6103 -4.0745 0.0 0
M  V30 19 C -11.4936 -2.8734 0.0 0
M  V30 END ATOM
M  V30 BEGIN BOND
M  V30 1 1 1 2
M  V30 2 2 2 3
M  V30 3 1 2 4
M  V30 4 1 3 5
M  V30 5 2 4 6
M  V30 6 2 5 7
M  V30 7 1 6 8
M  V30 8 1 8 9
M  V30 9 2 9 10
M  V30 10 1 9 11
M  V30 11 2 11 12
M  V30 12 1 11 13
M  V30 13 1 12 14
M  V30 14 2 13 15
M  V30 15 1 14 16
M  V30 16 1 14 17
M  V30 17 2 16 18
M  V30 18 2 17 19
M  V30 19 1 6 7
M  V30 20 1 15 16
M  V30 21 1 18 19
M  V30 END BOND
M  V30 END CTAB
M  END
>  <Ligand InChI>
InChI=1S/C14H9ClN2O2/c15-11-6-12(8-16-7-11)19-14(18)10-1-2-13-9(5-10)3-4-17-13/h1-8,17H

>  <Ligand InChI Key>
TYLOEMFGLQBHPE-UHFFFAOYSA-N

>  <BindingDB MonomerID>
429306

>  <Target Name Assigned by Curator or DataSource>
3C-like proteinase (3CL-PRO)

>  <Target Source Organism According to Curator or DataSource>
Human SARS coronavirus

>  <IC50 (nM)>
310

>  <PMID>
32852058

>  <Ligand HET ID in PDB>


>  <PDB ID(s) for Ligand-Target Complex>


>  <PubChem CID>


>  <PubChem SID>


>  <ChEMBL ID of Ligand>


>  <DrugBank ID of Ligand>


>  <ZINC ID of Ligand>


>  <PDB ID(s) of Target Chain>
1Q2W,1QZ8,1UJ1,1UK2,1UK3,1UK4,1UW7,1WOF,1Z1I,2A5A,2A5I,2A5K,2ACF,2AHM,2ALV,2AMD,2AMQ,2BX3,2BX4,2C3S,2D2D,2DUC,2FAV,2FE8,2FYG,2G9T,2GA6,2GDT,2GRI,2GT7,2GT8,2GTB,2GX4,2GZ7,2GZ8,2GZ9,2H2Z,2HOB,2HSX,2IDY,2JZF,2K7X,2K87,2KAF,2LIZ,2OP9,2OZK,2RNK,2V6N,2VJ1,2XYQ,2XYR,2XYV,2Z3C,2Z3D,2Z3E,2Z94,2Z9G,2Z9J,2Z9K,2Z9L,2ZU4,2ZU5,3D62,3E91,3E9S,3EA7,3EA8,3EBN,3IWM,3M3V,3MJ5,3R24,3SN8,3SNA,3SNB,3SNC,3SND,3SNE,3SZN,3TIT,3TIU,3TNS,3TNT,3V3M,3VB3,3VB4,3VB5,3VB6,3VB7,4MDS,4MM3,4OVZ,4OW0,5C8S,5C8T,5C8U,5F22,5N19,5N5O,5NFY,5TL6,5TL7,5Y3E,5Y3Q,6JYT,6LNQ,6LNY,6LO0,6NUR,6NUS,6W2A,6W79,6WCO,6XHL,6XHN,6XHO,6XMK,6XOA,7AKU,7C2K,7JOY

>  <Smiles>
O=C(C(C=C1)=CC2C1=NC=C2)Oc1cc(Cl)cnc1

$$$$
429425
Actelion Java MolfileCreator 2.0

  0  0  0  0  0  0              0 V3000
M  V30 BEGIN CTAB
M  V30 COUNTS 19 21 0 0 0
M  V30 BEGIN ATOM
M  V30 1 Cl 0.0 0.0 0.0 0
M  V30 2 C -1.3071 0.7654 0.0 0
M  V30 3 C -1.3189 2.2728 0.0 0
M  V30 4 C -2.6143 0.0235 0.0 0
M  V30 5 N -2.6261 3.0264 0.0 0
M  V30 6 C -3.9214 0.789 0.0 0
M  V30 7 C -3.9332 2.2963 0.0 0
M  V30 8 O -5.2286 0.0471 0.0 0
M  V30 9 C -5.2404 -1.4367 0.0 0
M  V30 10 O -3.9568 -2.1668 0.0 0
M  V30 11 C -6.5475 -2.1668 0.0 0
M  V30 12 C -7.8547 -1.4131 0.0 0
M  V30 13 C -6.5593 -3.6506 0.0 0
M  V30 14 C -9.1619 -2.1432 0.0 0
M  V30 15 C -7.8665 -4.3807 0.0 0
M  V30 16 N -10.5986 -1.6722 0.0 0
M  V30 17 C -9.1736 -3.627 0.0 0
M  V30 18 C -11.4936 -2.8734 0.0 0
M  V30 19 C -10.6103 -4.0745 0.0 0
M  V30 END ATOM
M  V30 BEGIN BOND
M  V30 1 1 1 2
M  V30 2 2 2 3
M  V30 3 1 2 4
M  V30 4 1 3 5
M  V30 5 2 4 6
M  V30 6 2 5 7
M  V30 7 1 6 8
M  V30 8 1 8 9
M  V30 9 2 9 10
M  V30 10 1 9 11
M  V30 11 2 11 12
M  V30 12 1 11 13
M  V30 13 1 12 14
M  V30 14 2 13 15
M  V30 15 1 14 16
M  V30 16 1 14 17
M  V30 17 2 16 18
M  V30 18 2 17 19
M  V30 19 1 6 7
M  V30 20 1 15 17
M  V30 21 1 18 19
M  V30 END BOND
M  V30 END CTAB
M  END
>  <Ligand InChI>
InChI=1S/C14H9ClN2O2/c15-11-6-12(8-16-7-11)19-14(18)10-2-1-9-3-4-17-13(9)5-10/h1-8,17H

>  <Ligand InChI Key>
OPNCFNLNJUPFKN-UHFFFAOYSA-N

>  <BindingDB MonomerID>
429425

>  <Target Name Assigned by Curator or DataSource>
3C-like proteinase (3CL-PRO)

>  <Target Source Organism According to Curator or DataSource>
Human SARS coronavirus

>  <IC50 (nM)>
230

>  <PMID>
32852058

>  <Ligand HET ID in PDB>


>  <PDB ID(s) for Ligand-Target Complex>


>  <PubChem CID>


>  <PubChem SID>


>  <ChEMBL ID of Ligand>


>  <DrugBank ID of Ligand>


>  <ZINC ID of Ligand>


>  <PDB ID(s) of Target Chain>
1Q2W,1QZ8,1UJ1,1UK2,1UK3,1UK4,1UW7,1WOF,1Z1I,2A5A,2A5I,2A5K,2ACF,2AHM,2ALV,2AMD,2AMQ,2BX3,2BX4,2C3S,2D2D,2DUC,2FAV,2FE8,2FYG,2G9T,2GA6,2GDT,2GRI,2GT7,2GT8,2GTB,2GX4,2GZ7,2GZ8,2GZ9,2H2Z,2HOB,2HSX,2IDY,2JZF,2K7X,2K87,2KAF,2LIZ,2OP9,2OZK,2RNK,2V6N,2VJ1,2XYQ,2XYR,2XYV,2Z3C,2Z3D,2Z3E,2Z94,2Z9G,2Z9J,2Z9K,2Z9L,2ZU4,2ZU5,3D62,3E91,3E9S,3EA7,3EA8,3EBN,3IWM,3M3V,3MJ5,3R24,3SN8,3SNA,3SNB,3SNC,3SND,3SNE,3SZN,3TIT,3TIU,3TNS,3TNT,3V3M,3VB3,3VB4,3VB5,3VB6,3VB7,4MDS,4MM3,4OVZ,4OW0,5C8S,5C8T,5C8U,5F22,5N19,5N5O,5NFY,5TL6,5TL7,5Y3E,5Y3Q,6JYT,6LNQ,6LNY,6LO0,6NUR,6NUS,6W2A,6W79,6WCO,6XHL,6XHN,6XHO,6XMK,6XOA,7AKU,7C2K,7JOY

>  <Smiles>
O=C(C1=CC2N=CC=C2C=C1)Oc1cc(Cl)cnc1

$$$$
429426
Actelion Java MolfileCreator 2.0

  0  0  0  0  0  0              0 V3000
M  V30 BEGIN CTAB
M  V30 COUNTS 19 21 0 0 0
M  V30 BEGIN ATOM
M  V30 1 Cl 0.0 0.0 0.0 0
M  V30 2 C -1.3137 -0.7337 0.0 0
M  V30 3 C -2.6274 0.0236 0.0 0
M  V30 4 C -1.3255 -2.225 0.0 0
M  V30 5 N -3.9411 -0.7101 0.0 0
M  V30 6 C -2.6392 -2.9706 0.0 0
M  V30 7 C -3.9529 -2.2013 0.0 0
M  V30 8 O -2.651 -4.4618 0.0 0
M  V30 9 C -1.361 -5.1956 0.0 0
M  V30 10 O -0.071 -4.4381 0.0 0
M  V30 11 C -1.3728 -6.6868 0.0 0
M  V30 12 C -2.6865 -7.4206 0.0 0
M  V30 13 C -0.0828 -7.4206 0.0 0
M  V30 14 N -4.1304 -6.9472 0.0 0
M  V30 15 C -2.6984 -8.9118 0.0 0
M  V30 16 C -0.0946 -8.9118 0.0 0
M  V30 17 C -5.0299 -8.1544 0.0 0
M  V30 18 C -1.4083 -9.6456 0.0 0
M  V30 19 C -4.1423 -9.3616 0.0 0
M  V30 END ATOM
M  V30 BEGIN BOND
M  V30 1 1 1 2
M  V30 2 2 2 3
M  V30 3 1 2 4
M  V30 4 1 3 5
M  V30 5 2 4 6
M  V30 6 2 5 7
M  V30 7 1 6 8
M  V30 8 1 8 9
M  V30 9 2 9 10
M  V30 10 1 9 11
M  V30 11 1 11 12
M  V30 12 2 11 13
M  V30 13 1 12 14
M  V30 14 1 12 15
M  V30 15 1 13 16
M  V30 16 2 14 17
M  V30 17 1 15 18
M  V30 18 2 15 19
M  V30 19 1 6 7
M  V30 20 2 16 18
M  V30 21 1 17 19
M  V30 END BOND
M  V30 END CTAB
M  END
>  <Ligand InChI>
InChI=1S/C14H9ClN2O2/c15-10-6-11(8-16-7-10)19-14(18)12-3-1-2-9-4-5-17-13(9)12/h1-8,17H

>  <Ligand InChI Key>
FDPMNGSSFLFBSI-UHFFFAOYSA-N

>  <BindingDB MonomerID>
429426

>  <Target Name Assigned by Curator or DataSource>
3C-like proteinase (3CL-PRO)

>  <Target Source Organism According to Curator or DataSource>
Human SARS coronavirus

>  <IC50 (nM)>
80

>  <PMID>
32852058

>  <Ligand HET ID in PDB>


>  <PDB ID(s) for Ligand-Target Complex>


>  <PubChem CID>


>  <PubChem SID>


>  <ChEMBL ID of Ligand>


>  <DrugBank ID of Ligand>


>  <ZINC ID of Ligand>


>  <PDB ID(s) of Target Chain>
1Q2W,1QZ8,1UJ1,1UK2,1UK3,1UK4,1UW7,1WOF,1Z1I,2A5A,2A5I,2A5K,2ACF,2AHM,2ALV,2AMD,2AMQ,2BX3,2BX4,2C3S,2D2D,2DUC,2FAV,2FE8,2FYG,2G9T,2GA6,2GDT,2GRI,2GT7,2GT8,2GTB,2GX4,2GZ7,2GZ8,2GZ9,2H2Z,2HOB,2HSX,2IDY,2JZF,2K7X,2K87,2KAF,2LIZ,2OP9,2OZK,2RNK,2V6N,2VJ1,2XYQ,2XYR,2XYV,2Z3C,2Z3D,2Z3E,2Z94,2Z9G,2Z9J,2Z9K,2Z9L,2ZU4,2ZU5,3D62,3E91,3E9S,3EA7,3EA8,3EBN,3IWM,3M3V,3MJ5,3R24,3SN8,3SNA,3SNB,3SNC,3SND,3SNE,3SZN,3TIT,3TIU,3TNS,3TNT,3V3M,3VB3,3VB4,3VB5,3VB6,3VB7,4MDS,4MM3,4OVZ,4OW0,5C8S,5C8T,5C8U,5F22,5N19,5N5O,5NFY,5TL6,5TL7,5Y3E,5Y3Q,6JYT,6LNQ,6LNY,6LO0,6NUR,6NUS,6W2A,6W79,6WCO,6XHL,6XHN,6XHO,6XMK,6XOA,7AKU,7C2K,7JOY

>  <Smiles>
O=C(C1=CC=CC2=CC=NC12)Oc1cc(Cl)cnc1

$$$$
429427
Actelion Java MolfileCreator 2.0

  0  0  0  0  0  0              0 V3000
M  V30 BEGIN CTAB
M  V30 COUNTS 29 32 0 0 0
M  V30 BEGIN ATOM
M  V30 1 Cl 0.0 0.0 0.0 0
M  V30 2 C -0.0117 1.5026 0.0 0
M  V30 3 C 1.2678 2.2657 0.0 0
M  V30 4 C -1.3148 2.2657 0.0 0
M  V30 5 N 1.2561 3.7684 0.0 0
M  V30 6 C -1.3265 3.7684 0.0 0
M  V30 7 C -0.0469 4.5197 0.0 0
M  V30 8 O -2.6296 4.5197 0.0 0
M  V30 9 C -3.9327 3.7801 0.0 0
M  V30 10 O -3.9445 2.3009 0.0 0
M  V30 11 C -5.2358 4.5315 0.0 0
M  V30 12 C -6.5389 3.7919 0.0 0
M  V30 13 C -5.2476 6.0341 0.0 0
M  V30 14 C -7.842 4.5432 0.0 0
M  V30 15 C -6.5507 6.7855 0.0 0
M  V30 16 C -7.8538 6.0459 0.0 0
M  V30 17 C -9.2743 4.0971 0.0 0
M  V30 18 N -9.286 6.5155 0.0 0
M  V30 19 C -10.1665 5.318 0.0 0
M  V30 20 S -9.7556 7.9477 0.0 0
M  V30 21 O -11.1879 7.5016 0.0 0
M  V30 22 O -8.3469 8.4173 0.0 0
M  V30 23 C -10.2252 9.3799 0.0 0
M  V30 24 C -9.2391 10.4952 0.0 0
M  V30 25 C -11.6927 9.6969 0.0 0
M  V30 26 C -9.7087 11.9275 0.0 0
M  V30 27 C -12.1622 11.1292 0.0 0
M  V30 28 C -11.1761 12.2444 0.0 0
M  V30 29 C -11.6457 13.6767 0.0 0
M  V30 END ATOM
M  V30 BEGIN BOND
M  V30 1 1 1 2
M  V30 2 2 2 3
M  V30 3 1 2 4
M  V30 4 1 3 5
M  V30 5 2 4 6
M  V30 6 2 5 7
M  V30 7 1 6 8
M  V30 8 1 8 9
M  V30 9 2 9 10
M  V30 10 1 9 11
M  V30 11 2 11 12
M  V30 12 1 11 13
M  V30 13 1 12 14
M  V30 14 2 13 15
M  V30 15 2 14 16
M  V30 16 1 14 17
M  V30 17 1 16 18
M  V30 18 2 17 19
M  V30 19 1 18 20
M  V30 20 2 20 21
M  V30 21 2 20 22
M  V30 22 1 20 23
M  V30 23 2 23 24
M  V30 24 1 23 25
M  V30 25 1 24 26
M  V30 26 2 25 27
M  V30 27 2 26 28
M  V30 28 1 28 29
M  V30 29 1 6 7
M  V30 30 1 15 16
M  V30 31 1 18 19
M  V30 32 1 27 28
M  V30 END BOND
M  V30 END CTAB
M  END
>  <Ligand InChI>
InChI=1S/C21H15ClN2O4S/c1-14-2-5-19(6-3-14)29(26,27)24-9-8-15-10-16(4-7-20(15)24)21(25)28-18-11-17(22)12-23-13-18/h2-13H,1H3

>  <Ligand InChI Key>
SXUXZAGERSBZTC-UHFFFAOYSA-N

>  <BindingDB MonomerID>
429427

>  <Target Name Assigned by Curator or DataSource>
3C-like proteinase (3CL-PRO)

>  <Target Source Organism According to Curator or DataSource>
Human SARS coronavirus

>  <IC50 (nM)>
310

>  <PMID>
32852058

>  <Ligand HET ID in PDB>


>  <PDB ID(s) for Ligand-Target Complex>


>  <PubChem CID>


>  <PubChem SID>


>  <ChEMBL ID of Ligand>


>  <DrugBank ID of Ligand>


>  <ZINC ID of Ligand>


>  <PDB ID(s) of Target Chain>
1Q2W,1QZ8,1UJ1,1UK2,1UK3,1UK4,1UW7,1WOF,1Z1I,2A5A,2A5I,2A5K,2ACF,2AHM,2ALV,2AMD,2AMQ,2BX3,2BX4,2C3S,2D2D,2DUC,2FAV,2FE8,2FYG,2G9T,2GA6,2GDT,2GRI,2GT7,2GT8,2GTB,2GX4,2GZ7,2GZ8,2GZ9,2H2Z,2HOB,2HSX,2IDY,2JZF,2K7X,2K87,2KAF,2LIZ,2OP9,2OZK,2RNK,2V6N,2VJ1,2XYQ,2XYR,2XYV,2Z3C,2Z3D,2Z3E,2Z94,2Z9G,2Z9J,2Z9K,2Z9L,2ZU4,2ZU5,3D62,3E91,3E9S,3EA7,3EA8,3EBN,3IWM,3M3V,3MJ5,3R24,3SN8,3SNA,3SNB,3SNC,3SND,3SNE,3SZN,3TIT,3TIU,3TNS,3TNT,3V3M,3VB3,3VB4,3VB5,3VB6,3VB7,4MDS,4MM3,4OVZ,4OW0,5C8S,5C8T,5C8U,5F22,5N19,5N5O,5NFY,5TL6,5TL7,5Y3E,5Y3Q,6JYT,6LNQ,6LNY,6LO0,6NUR,6NUS,6W2A,6W79,6WCO,6XHL,6XHN,6XHO,6XMK,6XOA,7AKU,7C2K,7JOY

>  <Smiles>
Cc(cc1)ccc1S(n(cc1)c(cc2)c1cc2C(Oc1cc(Cl)cnc1)=O)(=O)=O

$$$$
50167307
Actelion Java MolfileCreator 2.0

  0  0  0  0  0  0              0 V3000
M  V30 BEGIN CTAB
M  V30 COUNTS 22 25 0 0 0
M  V30 BEGIN ATOM
M  V30 1 I 0.0 0.0 0.0 0
M  V30 2 C 1.2929 -0.725 0.0 0
M  V30 3 C 2.5858 0.0241 0.0 0
M  V30 4 C 1.2808 -2.2475 0.0 0
M  V30 5 C 3.8788 -0.7008 0.0 0
M  V30 6 C 2.5737 -2.9967 0.0 0
M  V30 7 C 5.3046 -0.2295 0.0 0
M  V30 8 C 3.8667 -2.2112 0.0 0
M  V30 9 O 5.7517 1.2204 0.0 0
M  V30 10 C 6.1867 -1.45 0.0 0
M  V30 11 N 5.2925 -2.6704 0.0 0
M  V30 12 O 7.6851 -1.4379 0.0 0
M  V30 13 C 5.7517 -4.0963 0.0 0
M  V30 14 C 7.2138 -4.3984 0.0 0
M  V30 15 S 8.3255 -3.3592 0.0 0
M  V30 16 C 7.818 -5.7638 0.0 0
M  V30 17 C 9.6185 -4.1084 0.0 0
M  V30 18 C 9.2922 -5.5705 0.0 0
M  V30 19 C 11.0322 -3.625 0.0 0
M  V30 20 C 10.4039 -6.5613 0.0 0
M  V30 21 C 12.1439 -4.6159 0.0 0
M  V30 22 C 11.8297 -6.0901 0.0 0
M  V30 END ATOM
M  V30 BEGIN BOND
M  V30 1 1 1 2
M  V30 2 2 2 3
M  V30 3 1 2 4
M  V30 4 1 3 5
M  V30 5 2 4 6
M  V30 6 1 5 7
M  V30 7 2 5 8
M  V30 8 2 7 9
M  V30 9 1 7 10
M  V30 10 1 8 11
M  V30 11 2 10 12
M  V30 12 1 11 13
M  V30 13 1 13 14
M  V30 14 1 14 15
M  V30 15 2 14 16
M  V30 16 1 15 17
M  V30 17 1 16 18
M  V30 18 1 17 19
M  V30 19 1 18 20
M  V30 20 2 19 21
M  V30 21 2 20 22
M  V30 22 1 6 8
M  V30 23 1 10 11
M  V30 24 2 17 18
M  V30 25 1 21 22
M  V30 END BOND
M  V30 END CTAB
M  END
>  <Ligand InChI>
InChI=1S/C17H10INO2S/c18-11-5-6-14-13(8-11)16(20)17(21)19(14)9-12-7-10-3-1-2-4-15(10)22-12/h1-8H,9H2

>  <Ligand InChI Key>
MAYSJMBSILUGEG-UHFFFAOYSA-N

>  <BindingDB MonomerID>
50167307

>  <Target Name Assigned by Curator or DataSource>
3C-like proteinase (3CL-PRO)

>  <Target Source Organism According to Curator or DataSource>
Human SARS coronavirus

>  <IC50 (nM)>
950

>  <PMID>
32852058

>  <Ligand HET ID in PDB>


>  <PDB ID(s) for Ligand-Target Complex>


>  <PubChem CID>
11796320

>  <PubChem SID>
104052581

>  <ChEMBL ID of Ligand>
CHEMBL190743

>  <DrugBank ID of Ligand>


>  <ZINC ID of Ligand>
ZINC28466529

>  <PDB ID(s) of Target Chain>
1Q2W,1QZ8,1UJ1,1UK2,1UK3,1UK4,1UW7,1WOF,1Z1I,2A5A,2A5I,2A5K,2ACF,2AHM,2ALV,2AMD,2AMQ,2BX3,2BX4,2C3S,2D2D,2DUC,2FAV,2FE8,2FYG,2G9T,2GA6,2GDT,2GRI,2GT7,2GT8,2GTB,2GX4,2GZ7,2GZ8,2GZ9,2H2Z,2HOB,2HSX,2IDY,2JZF,2K7X,2K87,2KAF,2LIZ,2OP9,2OZK,2RNK,2V6N,2VJ1,2XYQ,2XYR,2XYV,2Z3C,2Z3D,2Z3E,2Z94,2Z9G,2Z9J,2Z9K,2Z9L,2ZU4,2ZU5,3D62,3E91,3E9S,3EA7,3EA8,3EBN,3IWM,3M3V,3MJ5,3R24,3SN8,3SNA,3SNB,3SNC,3SND,3SNE,3SZN,3TIT,3TIU,3TNS,3TNT,3V3M,3VB3,3VB4,3VB5,3VB6,3VB7,4MDS,4MM3,4OVZ,4OW0,5C8S,5C8T,5C8U,5F22,5N19,5N5O,5NFY,5TL6,5TL7,5Y3E,5Y3Q,6JYT,6LNQ,6LNY,6LO0,6NUR,6NUS,6W2A,6W79,6WCO,6XHL,6XHN,6XHO,6XMK,6XOA,7AKU,7C2K,7JOY

>  <Smiles>
O=C(c(cc(cc1)I)c1N1Cc2cc(cccc3)c3s2)C1=O

$$$$
50167309
Actelion Java MolfileCreator 2.0

  0  0  0  0  0  0              0 V3000
M  V30 BEGIN CTAB
M  V30 COUNTS 22 25 0 0 0
M  V30 BEGIN ATOM
M  V30 1 Br 0.0 0.0 0.0 0
M  V30 2 C -0.0119 1.5115 0.0 0
M  V30 3 C 1.2734 2.2851 0.0 0
M  V30 4 C -1.321 2.2732 0.0 0
M  V30 5 N 2.7016 1.8328 0.0 0
M  V30 6 C 1.2615 3.7966 0.0 0
M  V30 7 C -1.3329 3.7966 0.0 0
M  V30 8 C 3.5824 3.0587 0.0 0
M  V30 9 C 3.1658 0.4046 0.0 0
M  V30 10 C 2.6897 4.2846 0.0 0
M  V30 11 C -0.0476 4.5583 0.0 0
M  V30 12 O 5.0701 3.0706 0.0 0
M  V30 13 C 4.6178 0.1071 0.0 0
M  V30 14 O 3.1301 5.7366 0.0 0
M  V30 15 S 5.7247 1.1425 0.0 0
M  V30 16 C 5.2248 -1.2496 0.0 0
M  V30 17 C 7.01 0.4046 0.0 0
M  V30 18 C 6.6887 -1.0592 0.0 0
M  V30 19 C 8.4144 0.8807 0.0 0
M  V30 20 C 7.7956 -2.047 0.0 0
M  V30 21 C 9.5213 -0.1071 0.0 0
M  V30 22 C 9.2119 -1.5829 0.0 0
M  V30 END ATOM
M  V30 BEGIN BOND
M  V30 1 1 1 2
M  V30 2 2 2 3
M  V30 3 1 2 4
M  V30 4 1 3 5
M  V30 5 1 3 6
M  V30 6 2 4 7
M  V30 7 1 5 8
M  V30 8 1 5 9
M  V30 9 1 6 10
M  V30 10 2 6 11
M  V30 11 2 8 12
M  V30 12 1 9 13
M  V30 13 2 10 14
M  V30 14 1 13 15
M  V30 15 2 13 16
M  V30 16 1 15 17
M  V30 17 1 16 18
M  V30 18 1 17 19
M  V30 19 1 18 20
M  V30 20 2 19 21
M  V30 21 2 20 22
M  V30 22 1 7 11
M  V30 23 1 8 10
M  V30 24 2 17 18
M  V30 25 1 21 22
M  V30 END BOND
M  V30 END CTAB
M  END
>  <Ligand InChI>
InChI=1S/C17H10BrNO2S/c18-13-6-3-5-12-15(13)19(17(21)16(12)20)9-11-8-10-4-1-2-7-14(10)22-11/h1-8H,9H2

>  <Ligand InChI Key>
UFOWXDUBQLPEOX-UHFFFAOYSA-N

>  <BindingDB MonomerID>
50167309

>  <Target Name Assigned by Curator or DataSource>
3C-like proteinase (3CL-PRO)

>  <Target Source Organism According to Curator or DataSource>
Human SARS coronavirus

>  <IC50 (nM)>
980

>  <PMID>
32852058

>  <Ligand HET ID in PDB>


>  <PDB ID(s) for Ligand-Target Complex>


>  <PubChem CID>
11667869

>  <PubChem SID>
104052583

>  <ChEMBL ID of Ligand>
CHEMBL365134

>  <DrugBank ID of Ligand>


>  <ZINC ID of Ligand>
ZINC28465712

>  <PDB ID(s) of Target Chain>
1Q2W,1QZ8,1UJ1,1UK2,1UK3,1UK4,1UW7,1WOF,1Z1I,2A5A,2A5I,2A5K,2ACF,2AHM,2ALV,2AMD,2AMQ,2BX3,2BX4,2C3S,2D2D,2DUC,2FAV,2FE8,2FYG,2G9T,2GA6,2GDT,2GRI,2GT7,2GT8,2GTB,2GX4,2GZ7,2GZ8,2GZ9,2H2Z,2HOB,2HSX,2IDY,2JZF,2K7X,2K87,2KAF,2LIZ,2OP9,2OZK,2RNK,2V6N,2VJ1,2XYQ,2XYR,2XYV,2Z3C,2Z3D,2Z3E,2Z94,2Z9G,2Z9J,2Z9K,2Z9L,2ZU4,2ZU5,3D62,3E91,3E9S,3EA7,3EA8,3EBN,3IWM,3M3V,3MJ5,3R24,3SN8,3SNA,3SNB,3SNC,3SND,3SNE,3SZN,3TIT,3TIU,3TNS,3TNT,3V3M,3VB3,3VB4,3VB5,3VB6,3VB7,4MDS,4MM3,4OVZ,4OW0,5C8S,5C8T,5C8U,5F22,5N19,5N5O,5NFY,5TL6,5TL7,5Y3E,5Y3Q,6JYT,6LNQ,6LNY,6LO0,6NUR,6NUS,6W2A,6W79,6WCO,6XHL,6XHN,6XHO,6XMK,6XOA,7AKU,7C2K,7JOY

>  <Smiles>
O=C(c1cccc(Br)c1N1Cc2cc(cccc3)c3s2)C1=O

$$$$
50055218
Actelion Java MolfileCreator 2.0

  0  0  0  0  0  0              0 V3000
M  V30 BEGIN CTAB
M  V30 COUNTS 25 28 0 0 0
M  V30 BEGIN ATOM
M  V30 1 O 0.0 0.0 0.0 0
M  V30 2 C 1.4916 0.0591 0.0 0
M  V30 3 N 2.3913 -1.1128 0.0 0
M  V30 4 C 2.3203 1.3259 0.0 0
M  V30 5 C 3.7883 -0.58 0.0 0
M  V30 6 C 2.3795 -2.6044 0.0 0
M  V30 7 O 1.7876 2.7465 0.0 0
M  V30 8 C 3.7409 0.9234 0.0 0
M  V30 9 C 5.1023 -1.2903 0.0 0
M  V30 10 C 1.3022 -3.658 0.0 0
M  V30 11 C 5.0076 1.7284 0.0 0
M  V30 12 C 6.3927 -0.4853 0.0 0
M  V30 13 C 0.0118 -2.9004 0.0 0
M  V30 14 C 1.2785 -5.1378 0.0 0
M  V30 15 C 6.3217 1.0299 0.0 0
M  V30 16 C -1.314 -3.6225 0.0 0
M  V30 17 C -0.0473 -5.8718 0.0 0
M  V30 18 C 7.5884 1.8468 0.0 0
M  V30 19 C -1.3495 -5.1023 0.0 0
M  V30 20 C -2.6281 -2.8412 0.0 0
M  V30 21 O 7.5292 3.3621 0.0 0
M  V30 22 N 8.9025 1.172 0.0 0
M  V30 23 C -2.6399 -5.8363 0.0 0
M  V30 24 C -3.9185 -3.5752 0.0 0
M  V30 25 C -3.9422 -5.0787 0.0 0
M  V30 END ATOM
M  V30 BEGIN BOND
M  V30 1 2 1 2
M  V30 2 1 2 3
M  V30 3 1 2 4
M  V30 4 1 3 5
M  V30 5 1 3 6
M  V30 6 2 4 7
M  V30 7 1 4 8
M  V30 8 1 5 9
M  V30 9 1 6 10
M  V30 10 1 8 11
M  V30 11 2 9 12
M  V30 12 2 10 13
M  V30 13 1 10 14
M  V30 14 2 11 15
M  V30 15 1 13 16
M  V30 16 2 14 17
M  V30 17 1 15 18
M  V30 18 1 16 19
M  V30 19 2 16 20
M  V30 20 2 18 21
M  V30 21 1 18 22
M  V30 22 2 19 23
M  V30 23 1 20 24
M  V30 24 1 23 25
M  V30 25 2 5 8
M  V30 26 1 12 15
M  V30 27 1 17 19
M  V30 28 2 24 25
M  V30 END BOND
M  V30 END CTAB
M  END
>  <Ligand InChI>
InChI=1S/C20H14N2O3/c21-19(24)15-7-8-17-16(10-15)18(23)20(25)22(17)11-12-5-6-13-3-1-2-4-14(13)9-12/h1-10H,11H2,(H2,21,24)

>  <Ligand InChI Key>
NTNYHMJYSGPGCQ-UHFFFAOYSA-N

>  <BindingDB MonomerID>
50055218

>  <Target Name Assigned by Curator or DataSource>
3C-like proteinase (3CL-PRO)

>  <Target Source Organism According to Curator or DataSource>
Human SARS coronavirus

>  <IC50 (nM)>
370

>  <PMID>
32852058

>  <Ligand HET ID in PDB>


>  <PDB ID(s) for Ligand-Target Complex>


>  <PubChem CID>
515964

>  <PubChem SID>
103951731

>  <ChEMBL ID of Ligand>
CHEMBL358279

>  <DrugBank ID of Ligand>


>  <ZINC ID of Ligand>
ZINC03590592

>  <PDB ID(s) of Target Chain>
1Q2W,1QZ8,1UJ1,1UK2,1UK3,1UK4,1UW7,1WOF,1Z1I,2A5A,2A5I,2A5K,2ACF,2AHM,2ALV,2AMD,2AMQ,2BX3,2BX4,2C3S,2D2D,2DUC,2FAV,2FE8,2FYG,2G9T,2GA6,2GDT,2GRI,2GT7,2GT8,2GTB,2GX4,2GZ7,2GZ8,2GZ9,2H2Z,2HOB,2HSX,2IDY,2JZF,2K7X,2K87,2KAF,2LIZ,2OP9,2OZK,2RNK,2V6N,2VJ1,2XYQ,2XYR,2XYV,2Z3C,2Z3D,2Z3E,2Z94,2Z9G,2Z9J,2Z9K,2Z9L,2ZU4,2ZU5,3D62,3E91,3E9S,3EA7,3EA8,3EBN,3IWM,3M3V,3MJ5,3R24,3SN8,3SNA,3SNB,3SNC,3SND,3SNE,3SZN,3TIT,3TIU,3TNS,3TNT,3V3M,3VB3,3VB4,3VB5,3VB6,3VB7,4MDS,4MM3,4OVZ,4OW0,5C8S,5C8T,5C8U,5F22,5N19,5N5O,5NFY,5TL6,5TL7,5Y3E,5Y3Q,6JYT,6LNQ,6LNY,6LO0,6NUR,6NUS,6W2A,6W79,6WCO,6XHL,6XHN,6XHO,6XMK,6XOA,7AKU,7C2K,7JOY

>  <Smiles>
NC(c(cc1)cc(C2=O)c1N(Cc1cc3ccccc3cc1)C2=O)=O

$$$$
50495009
Actelion Java MolfileCreator 2.0

  0  0  0  0  0  0              0 V3000
M  V30 BEGIN CTAB
M  V30 COUNTS 28 31 0 0 0
M  V30 BEGIN ATOM
M  V30 1 S 0.0 0.0 0.0 0
M  V30 2 O 0.739 1.3111 0.0 0
M  V30 3 O -0.7628 1.3111 0.0 0
M  V30 4 N -1.3111 -0.739 0.0 0
M  V30 5 C 1.2873 -0.739 0.0 0
M  V30 6 C -2.6223 0.0238 0.0 0
M  V30 7 C -1.323 -2.2289 0.0 0
M  V30 8 C 2.5746 0.0238 0.0 0
M  V30 9 C 1.2753 -2.2289 0.0 0
M  V30 10 C -3.9334 -0.7151 0.0 0
M  V30 11 C -2.658 -2.9679 0.0 0
M  V30 12 C 3.8619 -0.7151 0.0 0
M  V30 13 C 2.5627 -2.9679 0.0 0
M  V30 14 C -3.9573 -2.2051 0.0 0
M  V30 15 C 5.2923 -0.2383 0.0 0
M  V30 16 C 3.85 -2.217 0.0 0
M  V30 17 C -5.2803 -2.9441 0.0 0
M  V30 18 O 5.7452 1.2038 0.0 0
M  V30 19 C 6.1743 -1.4541 0.0 0
M  V30 20 N 5.2803 -2.6699 0.0 0
M  V30 21 O 7.6643 -1.4422 0.0 0
M  V30 22 C 6.067 -3.9334 0.0 0
M  V30 23 C 5.3399 -5.2446 0.0 0
M  V30 24 C 3.8261 -5.2803 0.0 0
M  V30 25 C 6.1266 -6.4961 0.0 0
M  V30 26 C 3.111 -6.5915 0.0 0
M  V30 27 C 5.4114 -7.8073 0.0 0
M  V30 28 C 3.8977 -7.855 0.0 0
M  V30 END ATOM
M  V30 BEGIN BOND
M  V30 1 2 1 2
M  V30 2 2 1 3
M  V30 3 1 1 4
M  V30 4 1 1 5
M  V30 5 1 4 6
M  V30 6 1 4 7
M  V30 7 2 5 8
M  V30 8 1 5 9
M  V30 9 1 6 10
M  V30 10 1 7 11
M  V30 11 1 8 12
M  V30 12 2 9 13
M  V30 13 1 10 14
M  V30 14 1 12 15
M  V30 15 2 12 16
M  V30 16 1 14 17
M  V30 17 2 15 18
M  V30 18 1 15 19
M  V30 19 1 16 20
M  V30 20 2 19 21
M  V30 21 1 20 22
M  V30 22 1 22 23
M  V30 23 2 23 24
M  V30 24 1 23 25
M  V30 25 1 24 26
M  V30 26 2 25 27
M  V30 27 2 26 28
M  V30 28 1 11 14
M  V30 29 1 13 16
M  V30 30 1 19 20
M  V30 31 1 27 28
M  V30 END BOND
M  V30 END CTAB
M  END
>  <Ligand InChI>
InChI=1S/C21H22N2O4S/c1-15-9-11-22(12-10-15)28(26,27)17-7-8-19-18(13-17)20(24)21(25)23(19)14-16-5-3-2-4-6-16/h2-8,13,15H,9-12,14H2,1H3

>  <Ligand InChI Key>
FXEKOZSZGNWFIV-UHFFFAOYSA-N

>  <BindingDB MonomerID>
50495009

>  <Target Name Assigned by Curator or DataSource>
3C-like proteinase (3CL-PRO)

>  <Target Source Organism According to Curator or DataSource>
Human SARS coronavirus

>  <IC50 (nM)>
1040

>  <PMID>
32852058

>  <Ligand HET ID in PDB>


>  <PDB ID(s) for Ligand-Target Complex>


>  <PubChem CID>
73057090

>  <PubChem SID>
433962274

>  <ChEMBL ID of Ligand>


>  <DrugBank ID of Ligand>


>  <ZINC ID of Ligand>


>  <PDB ID(s) of Target Chain>
1Q2W,1QZ8,1UJ1,1UK2,1UK3,1UK4,1UW7,1WOF,1Z1I,2A5A,2A5I,2A5K,2ACF,2AHM,2ALV,2AMD,2AMQ,2BX3,2BX4,2C3S,2D2D,2DUC,2FAV,2FE8,2FYG,2G9T,2GA6,2GDT,2GRI,2GT7,2GT8,2GTB,2GX4,2GZ7,2GZ8,2GZ9,2H2Z,2HOB,2HSX,2IDY,2JZF,2K7X,2K87,2KAF,2LIZ,2OP9,2OZK,2RNK,2V6N,2VJ1,2XYQ,2XYR,2XYV,2Z3C,2Z3D,2Z3E,2Z94,2Z9G,2Z9J,2Z9K,2Z9L,2ZU4,2ZU5,3D62,3E91,3E9S,3EA7,3EA8,3EBN,3IWM,3M3V,3MJ5,3R24,3SN8,3SNA,3SNB,3SNC,3SND,3SNE,3SZN,3TIT,3TIU,3TNS,3TNT,3V3M,3VB3,3VB4,3VB5,3VB6,3VB7,4MDS,4MM3,4OVZ,4OW0,5C8S,5C8T,5C8U,5F22,5N19,5N5O,5NFY,5TL6,5TL7,5Y3E,5Y3Q,6JYT,6LNQ,6LNY,6LO0,6NUR,6NUS,6W2A,6W79,6WCO,6XHL,6XHN,6XHO,6XMK,6XOA,7AKU,7C2K,7JOY

>  <Smiles>
CC(CC1)CCN1S(c(cc1)cc(C2=O)c1N(Cc1ccccc1)C2=O)(=O)=O

$$$$
429438
Actelion Java MolfileCreator 2.0

  0  0  0  0  0  0              0 V3000
M  V30 BEGIN CTAB
M  V30 COUNTS 32 36 0 0 0
M  V30 BEGIN ATOM
M  V30 1 Br 0.0 0.0 0.0 0
M  V30 2 C -0.8925 1.2213 0.0 0
M  V30 3 C -0.2936 2.5954 0.0 0
M  V30 4 C -2.384 1.0804 0.0 0
M  V30 5 C -1.1861 3.8168 0.0 0
M  V30 6 C -3.2765 2.3018 0.0 0
M  V30 7 C -2.6776 3.6758 0.0 0
M  V30 8 C -3.5701 4.8972 0.0 0
M  V30 9 N -5.0734 4.909 0.0 0
M  V30 10 C -3.1239 6.33 0.0 0
M  V30 11 N -5.5432 6.3418 0.0 0
M  V30 12 N -1.7146 6.7998 0.0 0
M  V30 13 C -4.3453 7.2226 0.0 0
M  V30 14 C -6.9759 6.8115 0.0 0
M  V30 15 C -0.5167 5.9307 0.0 0
M  V30 16 C -1.2683 8.2325 0.0 0
M  V30 17 C -4.357 8.7258 0.0 0
M  V30 18 C -7.293 8.2795 0.0 0
M  V30 19 C -8.0916 5.825 0.0 0
M  V30 20 N 0.6811 6.8233 0.0 0
M  V30 21 C 0.2113 8.2443 0.0 0
M  V30 22 C -3.0769 9.4774 0.0 0
M  V30 23 C -5.6606 9.4774 0.0 0
M  V30 24 C -8.7258 8.7493 0.0 0
M  V30 25 C -9.5244 6.2948 0.0 0
M  V30 26 C -3.0886 10.9807 0.0 0
M  V30 27 C -5.6723 10.9807 0.0 0
M  V30 28 Cl -9.0429 10.2173 0.0 0
M  V30 29 C -9.8415 7.7628 0.0 0
M  V30 30 C -4.3922 11.7323 0.0 0
M  V30 31 Cl -11.2743 8.2325 0.0 0
M  V30 32 Cl -4.404 13.2355 0.0 0
M  V30 END ATOM
M  V30 BEGIN BOND
M  V30 1 1 1 2
M  V30 2 2 2 3
M  V30 3 1 2 4
M  V30 4 1 3 5
M  V30 5 2 4 6
M  V30 6 2 5 7
M  V30 7 1 7 8
M  V30 8 2 8 9
M  V30 9 1 8 10
M  V30 10 1 9 11
M  V30 11 1 10 12
M  V30 12 1 10 13
M  V30 13 1 11 14
M  V30 14 1 12 15
M  V30 15 1 12 16
M  V30 16 1 13 17
M  V30 17 2 14 18
M  V30 18 1 14 19
M  V30 19 2 15 20
M  V30 20 2 16 21
M  V30 21 2 17 22
M  V30 22 1 17 23
M  V30 23 1 18 24
M  V30 24 2 19 25
M  V30 25 1 22 26
M  V30 26 2 23 27
M  V30 27 1 24 28
M  V30 28 2 24 29
M  V30 29 2 26 30
M  V30 30 1 29 31
M  V30 31 1 30 32
M  V30 32 1 6 7
M  V30 33 1 11 13
M  V30 34 1 20 21
M  V30 35 1 25 29
M  V30 36 1 27 30
M  V30 END BOND
M  V30 END CTAB
M  END
>  <Ligand InChI>
InChI=1/C24H16BrCl3N4/c25-17-5-1-15(2-6-17)22-24(31-12-11-29-14-31)23(16-3-7-18(26)8-4-16)32(30-22)19-9-10-20(27)21(28)13-19/h1-14,23-24H

>  <Ligand InChI Key>
KGBQLRVREQTODQ-UHFFFAOYNA-N

>  <BindingDB MonomerID>
429438

>  <Target Name Assigned by Curator or DataSource>
3C-like proteinase (3CL-PRO)

>  <Target Source Organism According to Curator or DataSource>
Human SARS coronavirus

>  <IC50 (nM)>
2500

>  <PMID>
32852058

>  <Ligand HET ID in PDB>


>  <PDB ID(s) for Ligand-Target Complex>


>  <PubChem CID>


>  <PubChem SID>


>  <ChEMBL ID of Ligand>


>  <DrugBank ID of Ligand>


>  <ZINC ID of Ligand>


>  <PDB ID(s) of Target Chain>
1Q2W,1QZ8,1UJ1,1UK2,1UK3,1UK4,1UW7,1WOF,1Z1I,2A5A,2A5I,2A5K,2ACF,2AHM,2ALV,2AMD,2AMQ,2BX3,2BX4,2C3S,2D2D,2DUC,2FAV,2FE8,2FYG,2G9T,2GA6,2GDT,2GRI,2GT7,2GT8,2GTB,2GX4,2GZ7,2GZ8,2GZ9,2H2Z,2HOB,2HSX,2IDY,2JZF,2K7X,2K87,2KAF,2LIZ,2OP9,2OZK,2RNK,2V6N,2VJ1,2XYQ,2XYR,2XYV,2Z3C,2Z3D,2Z3E,2Z94,2Z9G,2Z9J,2Z9K,2Z9L,2ZU4,2ZU5,3D62,3E91,3E9S,3EA7,3EA8,3EBN,3IWM,3M3V,3MJ5,3R24,3SN8,3SNA,3SNB,3SNC,3SND,3SNE,3SZN,3TIT,3TIU,3TNS,3TNT,3V3M,3VB3,3VB4,3VB5,3VB6,3VB7,4MDS,4MM3,4OVZ,4OW0,5C8S,5C8T,5C8U,5F22,5N19,5N5O,5NFY,5TL6,5TL7,5Y3E,5Y3Q,6JYT,6LNQ,6LNY,6LO0,6NUR,6NUS,6W2A,6W79,6WCO,6XHL,6XHN,6XHO,6XMK,6XOA,7AKU,7C2K,7JOY

>  <Smiles>
Clc1ccc(C(C2n3cncc3)N(c(cc3)cc(Cl)c3Cl)N=C2c(cc2)ccc2Br)cc1

$$$$
47919
Actelion Java MolfileCreator 2.0

  0  0  0  0  0  0              0 V3000
M  V30 BEGIN CTAB
M  V30 COUNTS 33 36 0 0 0
M  V30 BEGIN ATOM
M  V30 1 O 0.0 0.0 0.0 0
M  V30 2 C -0.0118 -1.4934 0.0 0
M  V30 3 N 1.2801 -2.2283 0.0 0
M  V30 4 C -1.3275 -2.2283 0.0 0
M  V30 5 C 1.2682 -3.7218 0.0 0
M  V30 6 C 2.5721 -1.4697 0.0 0
M  V30 7 O -1.4934 -3.7099 0.0 0
M  V30 8 C -2.7143 -1.6001 0.0 0
M  V30 9 C 2.5602 -4.4567 0.0 0
M  V30 10 C -0.0474 -4.4567 0.0 0
M  V30 11 C 2.5602 0.0474 0.0 0
M  V30 12 C 3.864 -2.2046 0.0 0
M  V30 13 C -2.9751 -4.0063 0.0 0
M  V30 14 C -3.7336 -2.7024 0.0 0
M  V30 15 C 2.5483 -5.9502 0.0 0
M  V30 16 C -0.0592 -5.9502 0.0 0
M  V30 17 C 1.2445 0.8178 0.0 0
M  V30 18 C 3.8522 0.8178 0.0 0
M  V30 19 O 3.8522 -3.6981 0.0 0
M  V30 20 N 5.156 -1.446 0.0 0
M  V30 21 C 1.2327 -6.685 0.0 0
M  V30 22 N 1.2327 2.335 0.0 0
M  V30 23 C 3.8403 2.335 0.0 0
M  V30 24 C 6.448 -2.1809 0.0 0
M  V30 25 C 1.2208 -8.1785 0.0 0
M  V30 26 C 2.5246 3.0936 0.0 0
M  V30 27 C 6.5902 -3.6625 0.0 0
M  V30 28 C 7.8111 -1.5527 0.0 0
M  V30 29 C -0.0948 -8.9134 0.0 0
M  V30 30 C 2.5128 -8.9134 0.0 0
M  V30 31 C 8.0481 -3.9589 0.0 0
M  V30 32 C 8.8067 -2.655 0.0 0
M  V30 33 C -0.1066 -10.4069 0.0 0
M  V30 END ATOM
M  V30 BEGIN BOND
M  V30 1 2 1 2
M  V30 2 1 2 3
M  V30 3 1 2 4
M  V30 4 1 3 5
M  V30 5 1 3 6
M  V30 6 1 4 7
M  V30 7 2 4 8
M  V30 8 2 5 9
M  V30 9 1 5 10
M  V30 10 1 6 11
M  V30 11 1 6 12
M  V30 12 1 7 13
M  V30 13 1 8 14
M  V30 14 1 9 15
M  V30 15 2 10 16
M  V30 16 2 11 17
M  V30 17 1 11 18
M  V30 18 2 12 19
M  V30 19 1 12 20
M  V30 20 2 15 21
M  V30 21 1 17 22
M  V30 22 2 18 23
M  V30 23 1 20 24
M  V30 24 1 21 25
M  V30 25 2 22 26
M  V30 26 1 24 27
M  V30 27 1 24 28
M  V30 28 1 25 29
M  V30 29 1 25 30
M  V30 30 1 27 31
M  V30 31 1 28 32
M  V30 32 1 29 33
M  V30 33 2 13 14
M  V30 34 1 16 21
M  V30 35 1 23 26
M  V30 36 1 31 32
M  V30 END BOND
M  V30 END CTAB
M  END
>  <Ligand InChI>
InChI=1S/C27H31N3O3/c1-3-19(2)20-12-14-23(15-13-20)30(27(32)24-11-7-17-33-24)25(21-8-6-16-28-18-21)26(31)29-22-9-4-5-10-22/h6-8,11-19,22,25H,3-5,9-10H2,1-2H3,(H,29,31)

>  <Ligand InChI Key>
KMPOAXYUGWTIIV-UHFFFAOYSA-N

>  <BindingDB MonomerID>
47919

>  <Target Name Assigned by Curator or DataSource>
3C-like proteinase (3CL-PRO)

>  <Target Source Organism According to Curator or DataSource>
Human SARS coronavirus

>  <IC50 (nM)>
2200

>  <PMID>
32852058

>  <Ligand HET ID in PDB>


>  <PDB ID(s) for Ligand-Target Complex>


>  <PubChem CID>
3196508

>  <PubChem SID>
252628217

>  <ChEMBL ID of Ligand>


>  <DrugBank ID of Ligand>


>  <ZINC ID of Ligand>
ZINC13025377

>  <PDB ID(s) of Target Chain>
1Q2W,1QZ8,1UJ1,1UK2,1UK3,1UK4,1UW7,1WOF,1Z1I,2A5A,2A5I,2A5K,2ACF,2AHM,2ALV,2AMD,2AMQ,2BX3,2BX4,2C3S,2D2D,2DUC,2FAV,2FE8,2FYG,2G9T,2GA6,2GDT,2GRI,2GT7,2GT8,2GTB,2GX4,2GZ7,2GZ8,2GZ9,2H2Z,2HOB,2HSX,2IDY,2JZF,2K7X,2K87,2KAF,2LIZ,2OP9,2OZK,2RNK,2V6N,2VJ1,2XYQ,2XYR,2XYV,2Z3C,2Z3D,2Z3E,2Z94,2Z9G,2Z9J,2Z9K,2Z9L,2ZU4,2ZU5,3D62,3E91,3E9S,3EA7,3EA8,3EBN,3IWM,3M3V,3MJ5,3R24,3SN8,3SNA,3SNB,3SNC,3SND,3SNE,3SZN,3TIT,3TIU,3TNS,3TNT,3V3M,3VB3,3VB4,3VB5,3VB6,3VB7,4MDS,4MM3,4OVZ,4OW0,5C8S,5C8T,5C8U,5F22,5N19,5N5O,5NFY,5TL6,5TL7,5Y3E,5Y3Q,6JYT,6LNQ,6LNY,6LO0,6NUR,6NUS,6W2A,6W79,6WCO,6XHL,6XHN,6XHO,6XMK,6XOA,7AKU,7C2K,7JOY

>  <Smiles>
CCC(C)c(cc1)ccc1N(C(C(NC1CCCC1)=O)c1cnccc1)C(c1ccco1)=O

$$$$
429329
Actelion Java MolfileCreator 2.0

  0  0  0  0  0  0              0 V3000
M  V30 BEGIN CTAB
M  V30 COUNTS 32 34 0 0 0
M  V30 BEGIN ATOM
M  V30 1 O 0.0 0.0 0.0 0
M  V30 2 C -1.2257 0.8957 0.0 0
M  V30 3 C -0.4714 -1.4142 0.0 0
M  V30 4 C -1.2375 2.4043 0.0 0
M  V30 5 C -2.4514 0.0235 0.0 0
M  V30 6 C -1.98 -1.4025 0.0 0
M  V30 7 O 0.0471 3.1585 0.0 0
M  V30 8 N -2.5457 3.1585 0.0 0
M  V30 9 C -3.8539 2.4278 0.0 0
M  V30 10 C -2.5575 4.6671 0.0 0 CFG=2
M  V30 11 C -3.8657 0.9428 0.0 0
M  V30 12 C -5.1621 3.1821 0.0 0
M  V30 13 C -3.8657 5.4214 0.0 0
M  V30 14 C -1.2728 5.4214 0.0 0
M  V30 15 C -5.1739 0.2121 0.0 0
M  V30 16 C -6.4704 2.4514 0.0 0
M  V30 17 C -3.8775 6.93 0.0 0
M  V30 18 C -5.1739 4.6907 0.0 0
M  V30 19 O -1.2846 6.93 0.0 0
M  V30 20 N 0.0117 4.6907 0.0 0
M  V30 21 C -6.4822 0.9664 0.0 0
M  V30 22 N -5.1857 7.6843 0.0 0
M  V30 23 C -6.4822 5.445 0.0 0
M  V30 24 C 1.2964 5.445 0.0 0
M  V30 25 C -7.7904 0.2357 0.0 0
M  V30 26 C -6.4939 6.9536 0.0 0
M  V30 27 C 2.581 6.1993 0.0 0
M  V30 28 C 0.5421 6.7532 0.0 0
M  V30 29 C 2.0271 4.1603 0.0 0
M  V30 30 C -9.0986 -0.495 0.0 0
M  V30 31 C -8.5447 1.5439 0.0 0
M  V30 32 C -7.0597 -1.0489 0.0 0
M  V30 END ATOM
M  V30 BEGIN BOND
M  V30 1 1 1 2
M  V30 2 1 1 3
M  V30 3 1 2 4
M  V30 4 2 2 5
M  V30 5 2 3 6
M  V30 6 2 4 7
M  V30 7 1 4 8
M  V30 8 1 8 9
M  V30 9 1 10 8 CFG=3
M  V30 10 2 9 11
M  V30 11 1 9 12
M  V30 12 1 10 13
M  V30 13 1 10 14
M  V30 14 1 11 15
M  V30 15 2 12 16
M  V30 16 2 13 17
M  V30 17 1 13 18
M  V30 18 2 14 19
M  V30 19 1 14 20
M  V30 20 2 15 21
M  V30 21 1 17 22
M  V30 22 2 18 23
M  V30 23 1 20 24
M  V30 24 1 21 25
M  V30 25 2 22 26
M  V30 26 1 24 27
M  V30 27 1 24 28
M  V30 28 1 24 29
M  V30 29 1 25 30
M  V30 30 1 25 31
M  V30 31 1 25 32
M  V30 32 1 5 6
M  V30 33 1 16 21
M  V30 34 1 23 26
M  V30 END BOND
M  V30 BEGIN COLLECTION
M  V30 MDLV30/STEABS ATOMS=(1 10)
M  V30 END COLLECTION
M  V30 END CTAB
M  END
>  <Ligand InChI>
InChI=1S/C26H31N3O3/c1-25(2,3)19-11-13-20(14-12-19)29(24(31)21-10-8-16-32-21)22(18-9-7-15-27-17-18)23(30)28-26(4,5)6/h7-17,22H,1-6H3,(H,28,30)/t22-/m1/s1

>  <Ligand InChI Key>
JXGIYKRRPGCLFV-JOCHJYFZSA-N

>  <BindingDB MonomerID>
429329

>  <Target Name Assigned by Curator or DataSource>
3C-like proteinase (3CL-PRO)

>  <Target Source Organism According to Curator or DataSource>
Human SARS coronavirus

>  <IC50 (nM)>
1500

>  <PMID>
32852058

>  <Ligand HET ID in PDB>
0EN

>  <PDB ID(s) for Ligand-Target Complex>
3V3M

>  <PubChem CID>


>  <PubChem SID>


>  <ChEMBL ID of Ligand>


>  <DrugBank ID of Ligand>


>  <ZINC ID of Ligand>


>  <PDB ID(s) of Target Chain>
1Q2W,1QZ8,1UJ1,1UK2,1UK3,1UK4,1UW7,1WOF,1Z1I,2A5A,2A5I,2A5K,2ACF,2AHM,2ALV,2AMD,2AMQ,2BX3,2BX4,2C3S,2D2D,2DUC,2FAV,2FE8,2FYG,2G9T,2GA6,2GDT,2GRI,2GT7,2GT8,2GTB,2GX4,2GZ7,2GZ8,2GZ9,2H2Z,2HOB,2HSX,2IDY,2JZF,2K7X,2K87,2KAF,2LIZ,2OP9,2OZK,2RNK,2V6N,2VJ1,2XYQ,2XYR,2XYV,2Z3C,2Z3D,2Z3E,2Z94,2Z9G,2Z9J,2Z9K,2Z9L,2ZU4,2ZU5,3D62,3E91,3E9S,3EA7,3EA8,3EBN,3IWM,3M3V,3MJ5,3R24,3SN8,3SNA,3SNB,3SNC,3SND,3SNE,3SZN,3TIT,3TIU,3TNS,3TNT,3V3M,3VB3,3VB4,3VB5,3VB6,3VB7,4MDS,4MM3,4OVZ,4OW0,5C8S,5C8T,5C8U,5F22,5N19,5N5O,5NFY,5TL6,5TL7,5Y3E,5Y3Q,6JYT,6LNQ,6LNY,6LO0,6NUR,6NUS,6W2A,6W79,6WCO,6XHL,6XHN,6XHO,6XMK,6XOA,7AKU,7C2K,7JOY

>  <Smiles>
CC(C)(C)c(cc1)ccc1N([C@@H](C(NC(C)(C)C)=O)c1cnccc1)C(c1ccco1)=O

$$$$
429459
Actelion Java MolfileCreator 2.0

  0  0  0  0  0  0              0 V3000
M  V30 BEGIN CTAB
M  V30 COUNTS 38 41 0 0 0
M  V30 BEGIN ATOM
M  V30 1 S 0.0 0.0 0.0 0
M  V30 2 C -1.3102 0.7672 0.0 0
M  V30 3 C -0.3187 -1.4519 0.0 0
M  V30 4 C -2.4316 -0.2242 0.0 0
M  V30 5 C -1.8178 -1.5935 0.0 0
M  V30 6 C -3.9072 0.0944 0.0 0 CFG=1
M  V30 7 N -4.9224 -1.0033 0.0 0
M  V30 8 C -4.3794 1.5345 0.0 0
M  V30 9 C -6.3979 -0.6846 0.0 0
M  V30 10 C -4.4738 -2.4198 0.0 0
M  V30 11 O -3.3878 2.6559 0.0 0
M  V30 12 N -5.8549 1.8532 0.0 0
M  V30 13 C -6.8701 0.7554 0.0 0
M  V30 14 C -7.4131 -1.7824 0.0 0
M  V30 15 O -5.489 -3.5176 0.0 0
M  V30 16 C -3.0219 -2.7149 0.0 0
M  V30 17 C -6.3271 3.2934 0.0 0
M  V30 18 C -8.3456 1.0741 0.0 0
M  V30 19 C -8.8886 -1.4637 0.0 0
M  V30 20 N -2.5733 -4.1315 0.0 0
M  V30 21 C -4.9105 3.7655 0.0 0
M  V30 22 C -7.7672 2.8448 0.0 0
M  V30 23 C -6.7992 4.7335 0.0 0
M  V30 24 C -9.3608 -0.0236 0.0 0
M  V30 25 N -3.4704 -5.3355 0.0 0
M  V30 26 C -1.1568 -4.58 0.0 0
M  V30 27 N -10.8363 0.2951 0.0 0
M  V30 28 N -2.5969 -6.5395 0.0 0
M  V30 29 C -1.1686 -6.0674 0.0 0
M  V30 30 C 0.1298 -3.8127 0.0 0
M  V30 31 C -11.8515 -0.8026 0.0 0
M  V30 32 C 0.118 -6.811 0.0 0
M  V30 33 C 1.4165 -4.5564 0.0 0
M  V30 34 O -11.4029 -2.2192 0.0 0
M  V30 35 C -13.327 -0.4839 0.0 0
M  V30 36 C 1.4047 -6.0438 0.0 0
M  V30 37 C -14.3422 -1.5817 0.0 0
M  V30 38 C -13.7992 0.9561 0.0 0
M  V30 END ATOM
M  V30 BEGIN BOND
M  V30 1 1 1 2
M  V30 2 1 1 3
M  V30 3 2 2 4
M  V30 4 2 3 5
M  V30 5 1 4 6
M  V30 6 1 6 7 CFG=1
M  V30 7 1 6 8
M  V30 8 1 7 9
M  V30 9 1 7 10
M  V30 10 2 8 11
M  V30 11 1 8 12
M  V30 12 2 9 13
M  V30 13 1 9 14
M  V30 14 2 10 15
M  V30 15 1 10 16
M  V30 16 1 12 17
M  V30 17 1 13 18
M  V30 18 2 14 19
M  V30 19 1 16 20
M  V30 20 1 17 21
M  V30 21 1 17 22
M  V30 22 1 17 23
M  V30 23 2 18 24
M  V30 24 1 20 25
M  V30 25 1 20 26
M  V30 26 1 24 27
M  V30 27 2 25 28
M  V30 28 2 26 29
M  V30 29 1 26 30
M  V30 30 1 27 31
M  V30 31 1 29 32
M  V30 32 2 30 33
M  V30 33 2 31 34
M  V30 34 1 31 35
M  V30 35 2 32 36
M  V30 36 1 35 37
M  V30 37 1 35 38
M  V30 38 1 4 5
M  V30 39 1 19 24
M  V30 40 1 28 29
M  V30 41 1 33 36
M  V30 END BOND
M  V30 BEGIN COLLECTION
M  V30 MDLV30/STERAC1 ATOMS=(1 6)
M  V30 END COLLECTION
M  V30 END CTAB
M  END
>  <Ligand InChI>
InChI=1/C28H32N6O3S/c1-18(2)26(36)29-20-10-12-21(13-11-20)34(24(35)16-33-23-9-7-6-8-22(23)31-32-33)25(19-14-15-38-17-19)27(37)30-28(3,4)5/h6-15,17-18,25H,16H2,1-5H3,(H,29,36)(H,30,37)

>  <Ligand InChI Key>
PCVUBRKQJSUBFP-UHFFFAOYNA-N

>  <BindingDB MonomerID>
429459

>  <Target Name Assigned by Curator or DataSource>
3C-like proteinase (3CL-PRO)

>  <Target Source Organism According to Curator or DataSource>
Human SARS coronavirus

>  <IC50 (nM)>
4100

>  <PMID>
32852058

>  <Ligand HET ID in PDB>


>  <PDB ID(s) for Ligand-Target Complex>


>  <PubChem CID>


>  <PubChem SID>


>  <ChEMBL ID of Ligand>


>  <DrugBank ID of Ligand>


>  <ZINC ID of Ligand>


>  <PDB ID(s) of Target Chain>
1Q2W,1QZ8,1UJ1,1UK2,1UK3,1UK4,1UW7,1WOF,1Z1I,2A5A,2A5I,2A5K,2ACF,2AHM,2ALV,2AMD,2AMQ,2BX3,2BX4,2C3S,2D2D,2DUC,2FAV,2FE8,2FYG,2G9T,2GA6,2GDT,2GRI,2GT7,2GT8,2GTB,2GX4,2GZ7,2GZ8,2GZ9,2H2Z,2HOB,2HSX,2IDY,2JZF,2K7X,2K87,2KAF,2LIZ,2OP9,2OZK,2RNK,2V6N,2VJ1,2XYQ,2XYR,2XYV,2Z3C,2Z3D,2Z3E,2Z94,2Z9G,2Z9J,2Z9K,2Z9L,2ZU4,2ZU5,3D62,3E91,3E9S,3EA7,3EA8,3EBN,3IWM,3M3V,3MJ5,3R24,3SN8,3SNA,3SNB,3SNC,3SND,3SNE,3SZN,3TIT,3TIU,3TNS,3TNT,3V3M,3VB3,3VB4,3VB5,3VB6,3VB7,4MDS,4MM3,4OVZ,4OW0,5C8S,5C8T,5C8U,5F22,5N19,5N5O,5NFY,5TL6,5TL7,5Y3E,5Y3Q,6JYT,6LNQ,6LNY,6LO0,6NUR,6NUS,6W2A,6W79,6WCO,6XHL,6XHN,6XHO,6XMK,6XOA,7AKU,7C2K,7JOY

>  <Smiles>
CC(C)C(Nc(cc1)ccc1N(C(C(NC(C)(C)C)=O)c1cscc1)C(Cn1nnc2c1cccc2)=O)=O

$$$$
429460
Actelion Java MolfileCreator 2.0

  0  0  0  0  0  0              0 V3000
M  V30 BEGIN CTAB
M  V30 COUNTS 39 43 0 0 0
M  V30 BEGIN ATOM
M  V30 1 S 0.0 0.0 0.0 0
M  V30 2 C -0.0118 -1.4927 0.0 0
M  V30 3 C 1.4216 0.4738 0.0 0
M  V30 4 C 1.4098 -1.9429 0.0 0
M  V30 5 C 2.2983 -0.7345 0.0 0
M  V30 6 C 1.86 -3.3646 0.0 0 CFG=1
M  V30 7 N 3.3172 -3.6607 0.0 0
M  V30 8 C 0.8411 -4.4664 0.0 0
M  V30 9 C 4.3123 -2.5353 0.0 0
M  V30 10 C 3.7674 -5.0824 0.0 0
M  V30 11 O -0.6397 -4.1465 0.0 0
M  V30 12 N 1.2913 -5.888 0.0 0
M  V30 13 C 3.8385 -1.0899 0.0 0
M  V30 14 C 5.7695 -2.8314 0.0 0
M  V30 15 O 5.2246 -5.3786 0.0 0
M  V30 16 C 2.7485 -6.1842 0.0 0
M  V30 17 C 0.2724 -6.9898 0.0 0
M  V30 18 C 4.8336 0.0355 0.0 0
M  V30 19 C 6.7647 -1.706 0.0 0
M  V30 20 N 3.1987 -7.6059 0.0 0
M  V30 21 C -0.7463 -8.0916 0.0 0
M  V30 22 C -0.853 -5.971 0.0 0
M  V30 23 C 1.3742 -7.985 0.0 0
M  V30 24 C 6.2908 -0.2606 0.0 0
M  V30 25 N 2.2983 -8.8143 0.0 0
M  V30 26 C 4.6204 -8.0561 0.0 0
M  V30 27 N 7.286 0.8648 0.0 0
M  V30 28 N 3.175 -10.0227 0.0 0
M  V30 29 C 4.6085 -9.5488 0.0 0
M  V30 30 C 5.9117 -7.2978 0.0 0
M  V30 31 C 6.8121 2.3102 0.0 0
M  V30 32 C 5.8999 -10.2952 0.0 0
M  V30 33 C 7.2031 -8.0324 0.0 0
M  V30 34 O 5.3312 2.63 0.0 0
M  V30 35 C 7.8073 3.4356 0.0 0
M  V30 36 C 7.1912 -9.537 0.0 0
M  V30 37 C 7.7125 4.9521 0.0 0
M  V30 38 C 9.3 3.5304 0.0 0
M  V30 39 C 9.2052 5.0469 0.0 0
M  V30 END ATOM
M  V30 BEGIN BOND
M  V30 1 1 1 2
M  V30 2 1 1 3
M  V30 3 2 2 4
M  V30 4 2 3 5
M  V30 5 1 4 6
M  V30 6 1 6 7 CFG=1
M  V30 7 1 6 8
M  V30 8 1 7 9
M  V30 9 1 7 10
M  V30 10 2 8 11
M  V30 11 1 8 12
M  V30 12 2 9 13
M  V30 13 1 9 14
M  V30 14 2 10 15
M  V30 15 1 10 16
M  V30 16 1 12 17
M  V30 17 1 13 18
M  V30 18 2 14 19
M  V30 19 1 16 20
M  V30 20 1 17 21
M  V30 21 1 17 22
M  V30 22 1 17 23
M  V30 23 2 18 24
M  V30 24 1 20 25
M  V30 25 1 20 26
M  V30 26 1 24 27
M  V30 27 2 25 28
M  V30 28 2 26 29
M  V30 29 1 26 30
M  V30 30 1 27 31
M  V30 31 1 29 32
M  V30 32 2 30 33
M  V30 33 2 31 34
M  V30 34 1 31 35
M  V30 35 2 32 36
M  V30 36 1 35 37
M  V30 37 1 35 38
M  V30 38 1 37 39
M  V30 39 1 4 5
M  V30 40 1 19 24
M  V30 41 1 28 29
M  V30 42 1 33 36
M  V30 43 1 38 39
M  V30 END BOND
M  V30 BEGIN COLLECTION
M  V30 MDLV30/STERAC1 ATOMS=(1 6)
M  V30 END COLLECTION
M  V30 END CTAB
M  END
>  <Ligand InChI>
InChI=1/C29H32N6O3S/c1-29(2,3)31-28(38)26(20-15-16-39-18-20)35(25(36)17-34-24-10-5-4-9-23(24)32-33-34)22-13-11-21(12-14-22)30-27(37)19-7-6-8-19/h4-5,9-16,18-19,26H,6-8,17H2,1-3H3,(H,30,37)(H,31,38)

>  <Ligand InChI Key>
MIUWEMMHFMGNDH-UHFFFAOYNA-N

>  <BindingDB MonomerID>
429460

>  <Target Name Assigned by Curator or DataSource>
3C-like proteinase (3CL-PRO)

>  <Target Source Organism According to Curator or DataSource>
Human SARS coronavirus

>  <IC50 (nM)>
3800

>  <PMID>
32852058

>  <Ligand HET ID in PDB>


>  <PDB ID(s) for Ligand-Target Complex>


>  <PubChem CID>


>  <PubChem SID>


>  <ChEMBL ID of Ligand>


>  <DrugBank ID of Ligand>


>  <ZINC ID of Ligand>


>  <PDB ID(s) of Target Chain>
1Q2W,1QZ8,1UJ1,1UK2,1UK3,1UK4,1UW7,1WOF,1Z1I,2A5A,2A5I,2A5K,2ACF,2AHM,2ALV,2AMD,2AMQ,2BX3,2BX4,2C3S,2D2D,2DUC,2FAV,2FE8,2FYG,2G9T,2GA6,2GDT,2GRI,2GT7,2GT8,2GTB,2GX4,2GZ7,2GZ8,2GZ9,2H2Z,2HOB,2HSX,2IDY,2JZF,2K7X,2K87,2KAF,2LIZ,2OP9,2OZK,2RNK,2V6N,2VJ1,2XYQ,2XYR,2XYV,2Z3C,2Z3D,2Z3E,2Z94,2Z9G,2Z9J,2Z9K,2Z9L,2ZU4,2ZU5,3D62,3E91,3E9S,3EA7,3EA8,3EBN,3IWM,3M3V,3MJ5,3R24,3SN8,3SNA,3SNB,3SNC,3SND,3SNE,3SZN,3TIT,3TIU,3TNS,3TNT,3V3M,3VB3,3VB4,3VB5,3VB6,3VB7,4MDS,4MM3,4OVZ,4OW0,5C8S,5C8T,5C8U,5F22,5N19,5N5O,5NFY,5TL6,5TL7,5Y3E,5Y3Q,6JYT,6LNQ,6LNY,6LO0,6NUR,6NUS,6W2A,6W79,6WCO,6XHL,6XHN,6XHO,6XMK,6XOA,7AKU,7C2K,7JOY

>  <Smiles>
CC(C)(C)NC(C(c1cscc1)N(C(Cn1nnc2c1cccc2)=O)c(cc1)ccc1NC(C1CCC1)=O)=O

$$$$
429461
Actelion Java MolfileCreator 2.0

  0  0  0  0  0  0              0 V3000
M  V30 BEGIN CTAB
M  V30 COUNTS 30 33 0 0 0
M  V30 BEGIN ATOM
M  V30 1 S 0.0 0.0 0.0 0
M  V30 2 C -1.3121 0.7683 0.0 0
M  V30 3 C -0.3191 -1.4539 0.0 0
M  V30 4 C -2.4351 -0.2246 0.0 0
M  V30 5 C -1.8204 -1.5958 0.0 0
M  V30 6 C -3.9127 0.0945 0.0 0
M  V30 7 N -4.9293 -1.0047 0.0 0
M  V30 8 C -6.407 -0.6856 0.0 0
M  V30 9 C -4.4801 -2.4233 0.0 0
M  V30 10 C -6.8798 0.7565 0.0 0
M  V30 11 C -7.4236 -1.7849 0.0 0
M  V30 12 O -5.4968 -3.5226 0.0 0
M  V30 13 C -3.0261 -2.7188 0.0 0
M  V30 14 C -8.3575 1.0757 0.0 0
M  V30 15 C -8.9012 -1.4658 0.0 0
M  V30 16 N -2.5769 -4.1373 0.0 0
M  V30 17 C -9.3741 -0.0236 0.0 0
M  V30 18 N -3.4753 -5.3431 0.0 0
M  V30 19 C -1.1584 -4.5865 0.0 0
M  V30 20 N -10.8517 0.2955 0.0 0
M  V30 21 N -2.6006 -6.5488 0.0 0
M  V30 22 C -1.1702 -6.076 0.0 0
M  V30 23 C 0.13 -3.8182 0.0 0
M  V30 24 C -11.8683 -0.8038 0.0 0
M  V30 25 C 0.1182 -6.8207 0.0 0
M  V30 26 C 1.4185 -4.5629 0.0 0
M  V30 27 O -11.4191 -2.2223 0.0 0
M  V30 28 C -13.346 -0.4846 0.0 0
M  V30 29 C 1.4067 -6.0523 0.0 0
M  V30 30 C -14.3626 -1.584 0.0 0
M  V30 END ATOM
M  V30 BEGIN BOND
M  V30 1 1 1 2
M  V30 2 1 1 3
M  V30 3 2 2 4
M  V30 4 2 3 5
M  V30 5 1 4 6
M  V30 6 1 6 7
M  V30 7 1 7 8
M  V30 8 1 7 9
M  V30 9 2 8 10
M  V30 10 1 8 11
M  V30 11 2 9 12
M  V30 12 1 9 13
M  V30 13 1 10 14
M  V30 14 2 11 15
M  V30 15 1 13 16
M  V30 16 2 14 17
M  V30 17 1 16 18
M  V30 18 1 16 19
M  V30 19 1 17 20
M  V30 20 2 18 21
M  V30 21 2 19 22
M  V30 22 1 19 23
M  V30 23 1 20 24
M  V30 24 1 22 25
M  V30 25 2 23 26
M  V30 26 2 24 27
M  V30 27 1 24 28
M  V30 28 2 25 29
M  V30 29 1 28 30
M  V30 30 1 4 5
M  V30 31 1 15 17
M  V30 32 1 21 22
M  V30 33 1 26 29
M  V30 END BOND
M  V30 END CTAB
M  END
>  <Ligand InChI>
InChI=1S/C22H21N5O2S/c1-2-21(28)23-17-7-9-18(10-8-17)26(13-16-11-12-30-15-16)22(29)14-27-20-6-4-3-5-19(20)24-25-27/h3-12,15H,2,13-14H2,1H3,(H,23,28)

>  <Ligand InChI Key>
TWIVXCFEBRGEKY-UHFFFAOYSA-N

>  <BindingDB MonomerID>
429461

>  <Target Name Assigned by Curator or DataSource>
3C-like proteinase (3CL-PRO)

>  <Target Source Organism According to Curator or DataSource>
Human SARS coronavirus

>  <IC50 (nM)>
2900

>  <PMID>
32852058

>  <Ligand HET ID in PDB>
R30

>  <PDB ID(s) for Ligand-Target Complex>
4YLU

>  <PubChem CID>


>  <PubChem SID>


>  <ChEMBL ID of Ligand>


>  <DrugBank ID of Ligand>


>  <ZINC ID of Ligand>


>  <PDB ID(s) of Target Chain>
1Q2W,1QZ8,1UJ1,1UK2,1UK3,1UK4,1UW7,1WOF,1Z1I,2A5A,2A5I,2A5K,2ACF,2AHM,2ALV,2AMD,2AMQ,2BX3,2BX4,2C3S,2D2D,2DUC,2FAV,2FE8,2FYG,2G9T,2GA6,2GDT,2GRI,2GT7,2GT8,2GTB,2GX4,2GZ7,2GZ8,2GZ9,2H2Z,2HOB,2HSX,2IDY,2JZF,2K7X,2K87,2KAF,2LIZ,2OP9,2OZK,2RNK,2V6N,2VJ1,2XYQ,2XYR,2XYV,2Z3C,2Z3D,2Z3E,2Z94,2Z9G,2Z9J,2Z9K,2Z9L,2ZU4,2ZU5,3D62,3E91,3E9S,3EA7,3EA8,3EBN,3IWM,3M3V,3MJ5,3R24,3SN8,3SNA,3SNB,3SNC,3SND,3SNE,3SZN,3TIT,3TIU,3TNS,3TNT,3V3M,3VB3,3VB4,3VB5,3VB6,3VB7,4MDS,4MM3,4OVZ,4OW0,5C8S,5C8T,5C8U,5F22,5N19,5N5O,5NFY,5TL6,5TL7,5Y3E,5Y3Q,6JYT,6LNQ,6LNY,6LO0,6NUR,6NUS,6W2A,6W79,6WCO,6XHL,6XHN,6XHO,6XMK,6XOA,7AKU,7C2K,7JOY

>  <Smiles>
CCC(Nc(cc1)ccc1N(Cc1cscc1)C(Cn1nnc2c1cccc2)=O)=O

$$$$
429462
Actelion Java MolfileCreator 2.0

  0  0  0  0  0  0              0 V3000
M  V30 BEGIN CTAB
M  V30 COUNTS 31 34 0 0 0
M  V30 BEGIN ATOM
M  V30 1 S 0.0 0.0 0.0 0
M  V30 2 C -1.3116 0.7681 0.0 0
M  V30 3 C -0.319 -1.4534 0.0 0
M  V30 4 C -2.4342 -0.2245 0.0 0
M  V30 5 C -1.8198 -1.5952 0.0 0
M  V30 6 C -3.9114 0.0945 0.0 0
M  V30 7 N -4.9276 -1.0044 0.0 0
M  V30 8 C -6.4048 -0.6853 0.0 0
M  V30 9 C -4.4786 -2.4224 0.0 0
M  V30 10 C -6.8774 0.7562 0.0 0
M  V30 11 C -7.421 -1.7843 0.0 0
M  V30 12 O -5.4948 -3.5214 0.0 0
M  V30 13 C -3.0251 -2.7179 0.0 0
M  V30 14 C -8.3546 1.0753 0.0 0
M  V30 15 C -8.8981 -1.4653 0.0 0
M  V30 16 N -2.5761 -4.1359 0.0 0
M  V30 17 C -9.3708 -0.0236 0.0 0
M  V30 18 N -3.4741 -5.3412 0.0 0
M  V30 19 C -1.158 -4.5849 0.0 0
M  V30 20 N -10.8479 0.2954 0.0 0
M  V30 21 N -2.5997 -6.5466 0.0 0
M  V30 22 C -1.1698 -6.0739 0.0 0
M  V30 23 C 0.1299 -3.8168 0.0 0
M  V30 24 C -11.8642 -0.8035 0.0 0
M  V30 25 C 0.1181 -6.8183 0.0 0
M  V30 26 C 1.418 -4.5613 0.0 0
M  V30 27 O -11.4152 -2.2215 0.0 0
M  V30 28 C -13.3413 -0.4844 0.0 0
M  V30 29 C 1.4062 -6.0502 0.0 0
M  V30 30 C -14.3576 -1.5834 0.0 0
M  V30 31 C -13.814 0.9571 0.0 0
M  V30 END ATOM
M  V30 BEGIN BOND
M  V30 1 1 1 2
M  V30 2 1 1 3
M  V30 3 2 2 4
M  V30 4 2 3 5
M  V30 5 1 4 6
M  V30 6 1 6 7
M  V30 7 1 7 8
M  V30 8 1 7 9
M  V30 9 2 8 10
M  V30 10 1 8 11
M  V30 11 2 9 12
M  V30 12 1 9 13
M  V30 13 1 10 14
M  V30 14 2 11 15
M  V30 15 1 13 16
M  V30 16 2 14 17
M  V30 17 1 16 18
M  V30 18 1 16 19
M  V30 19 1 17 20
M  V30 20 2 18 21
M  V30 21 2 19 22
M  V30 22 1 19 23
M  V30 23 1 20 24
M  V30 24 1 22 25
M  V30 25 2 23 26
M  V30 26 2 24 27
M  V30 27 1 24 28
M  V30 28 2 25 29
M  V30 29 1 28 30
M  V30 30 1 28 31
M  V30 31 1 4 5
M  V30 32 1 15 17
M  V30 33 1 21 22
M  V30 34 1 26 29
M  V30 END BOND
M  V30 END CTAB
M  END
>  <Ligand InChI>
InChI=1S/C23H23N5O2S/c1-16(2)23(30)24-18-7-9-19(10-8-18)27(13-17-11-12-31-15-17)22(29)14-28-21-6-4-3-5-20(21)25-26-28/h3-12,15-16H,13-14H2,1-2H3,(H,24,30)

>  <Ligand InChI Key>
LTKZCHKSOAHTRI-UHFFFAOYSA-N

>  <BindingDB MonomerID>
429462

>  <Target Name Assigned by Curator or DataSource>
3C-like proteinase (3CL-PRO)

>  <Target Source Organism According to Curator or DataSource>
Human SARS coronavirus

>  <IC50 (nM)>
3600

>  <PMID>
32852058

>  <Ligand HET ID in PDB>


>  <PDB ID(s) for Ligand-Target Complex>


>  <PubChem CID>


>  <PubChem SID>


>  <ChEMBL ID of Ligand>


>  <DrugBank ID of Ligand>


>  <ZINC ID of Ligand>


>  <PDB ID(s) of Target Chain>
1Q2W,1QZ8,1UJ1,1UK2,1UK3,1UK4,1UW7,1WOF,1Z1I,2A5A,2A5I,2A5K,2ACF,2AHM,2ALV,2AMD,2AMQ,2BX3,2BX4,2C3S,2D2D,2DUC,2FAV,2FE8,2FYG,2G9T,2GA6,2GDT,2GRI,2GT7,2GT8,2GTB,2GX4,2GZ7,2GZ8,2GZ9,2H2Z,2HOB,2HSX,2IDY,2JZF,2K7X,2K87,2KAF,2LIZ,2OP9,2OZK,2RNK,2V6N,2VJ1,2XYQ,2XYR,2XYV,2Z3C,2Z3D,2Z3E,2Z94,2Z9G,2Z9J,2Z9K,2Z9L,2ZU4,2ZU5,3D62,3E91,3E9S,3EA7,3EA8,3EBN,3IWM,3M3V,3MJ5,3R24,3SN8,3SNA,3SNB,3SNC,3SND,3SNE,3SZN,3TIT,3TIU,3TNS,3TNT,3V3M,3VB3,3VB4,3VB5,3VB6,3VB7,4MDS,4MM3,4OVZ,4OW0,5C8S,5C8T,5C8U,5F22,5N19,5N5O,5NFY,5TL6,5TL7,5Y3E,5Y3Q,6JYT,6LNQ,6LNY,6LO0,6NUR,6NUS,6W2A,6W79,6WCO,6XHL,6XHN,6XHO,6XMK,6XOA,7AKU,7C2K,7JOY

>  <Smiles>
CC(C)C(Nc(cc1)ccc1N(Cc1cscc1)C(Cn1nnc2c1cccc2)=O)=O

$$$$
429463
Actelion Java MolfileCreator 2.0

  0  0  0  0  0  0              0 V3000
M  V30 BEGIN CTAB
M  V30 COUNTS 35 39 0 0 0
M  V30 BEGIN ATOM
M  V30 1 S 0.0 0.0 0.0 0
M  V30 2 C -1.3122 0.7684 0.0 0
M  V30 3 C -0.3192 -1.4541 0.0 0
M  V30 4 C -2.4353 -0.2246 0.0 0
M  V30 5 C -1.8206 -1.596 0.0 0
M  V30 6 C -3.9131 0.0945 0.0 0
M  V30 7 N -4.9298 -1.0048 0.0 0
M  V30 8 C -6.4076 -0.6856 0.0 0
M  V30 9 C -4.4806 -2.4235 0.0 0
M  V30 10 C -6.8805 0.7566 0.0 0
M  V30 11 C -7.4243 -1.7851 0.0 0
M  V30 12 O -5.4973 -3.523 0.0 0
M  V30 13 C -3.0265 -2.7191 0.0 0
M  V30 14 C -8.3583 1.0758 0.0 0
M  V30 15 C -8.9021 -1.4659 0.0 0
M  V30 16 N -2.5772 -4.1378 0.0 0
M  V30 17 C -9.375 -0.0236 0.0 0
M  V30 18 N -3.4757 -5.3436 0.0 0
M  V30 19 C -1.1585 -4.587 0.0 0
M  V30 20 N -10.8528 0.2955 0.0 0
M  V30 21 N -2.6009 -6.5495 0.0 0
M  V30 22 C -1.1704 -6.0766 0.0 0
M  V30 23 C 0.13 -3.8185 0.0 0
M  V30 24 C -11.8695 -0.8039 0.0 0
M  V30 25 C 0.1182 -6.8214 0.0 0
M  V30 26 C 1.4186 -4.5634 0.0 0
M  V30 27 O -11.4203 -2.2225 0.0 0
M  V30 28 C -13.3473 -0.4847 0.0 0
M  V30 29 C 1.4068 -6.053 0.0 0
M  V30 30 C -14.364 -1.5841 0.0 0
M  V30 31 C -13.9148 -3.0028 0.0 0
M  V30 32 C -15.8418 -1.2649 0.0 0
M  V30 33 C -14.9315 -4.1023 0.0 0
M  V30 34 C -16.8585 -2.3644 0.0 0
M  V30 35 C -16.4093 -3.7831 0.0 0
M  V30 END ATOM
M  V30 BEGIN BOND
M  V30 1 1 1 2
M  V30 2 1 1 3
M  V30 3 2 2 4
M  V30 4 2 3 5
M  V30 5 1 4 6
M  V30 6 1 6 7
M  V30 7 1 7 8
M  V30 8 1 7 9
M  V30 9 2 8 10
M  V30 10 1 8 11
M  V30 11 2 9 12
M  V30 12 1 9 13
M  V30 13 1 10 14
M  V30 14 2 11 15
M  V30 15 1 13 16
M  V30 16 2 14 17
M  V30 17 1 16 18
M  V30 18 1 16 19
M  V30 19 1 17 20
M  V30 20 2 18 21
M  V30 21 2 19 22
M  V30 22 1 19 23
M  V30 23 1 20 24
M  V30 24 1 22 25
M  V30 25 2 23 26
M  V30 26 2 24 27
M  V30 27 1 24 28
M  V30 28 2 25 29
M  V30 29 1 28 30
M  V30 30 2 30 31
M  V30 31 1 30 32
M  V30 32 1 31 33
M  V30 33 2 32 34
M  V30 34 2 33 35
M  V30 35 1 4 5
M  V30 36 1 15 17
M  V30 37 1 21 22
M  V30 38 1 26 29
M  V30 39 1 34 35
M  V30 END BOND
M  V30 END CTAB
M  END
>  <Ligand InChI>
InChI=1S/C27H23N5O2S/c33-26(16-20-6-2-1-3-7-20)28-22-10-12-23(13-11-22)31(17-21-14-15-35-19-21)27(34)18-32-25-9-5-4-8-24(25)29-30-32/h1-15,19H,16-18H2,(H,28,33)

>  <Ligand InChI Key>
GJWKQPQSAJYUKW-UHFFFAOYSA-N

>  <BindingDB MonomerID>
429463

>  <Target Name Assigned by Curator or DataSource>
3C-like proteinase (3CL-PRO)

>  <Target Source Organism According to Curator or DataSource>
Human SARS coronavirus

>  <IC50 (nM)>
1500

>  <PMID>
32852058

>  <Ligand HET ID in PDB>


>  <PDB ID(s) for Ligand-Target Complex>


>  <PubChem CID>


>  <PubChem SID>


>  <ChEMBL ID of Ligand>


>  <DrugBank ID of Ligand>


>  <ZINC ID of Ligand>


>  <PDB ID(s) of Target Chain>
1Q2W,1QZ8,1UJ1,1UK2,1UK3,1UK4,1UW7,1WOF,1Z1I,2A5A,2A5I,2A5K,2ACF,2AHM,2ALV,2AMD,2AMQ,2BX3,2BX4,2C3S,2D2D,2DUC,2FAV,2FE8,2FYG,2G9T,2GA6,2GDT,2GRI,2GT7,2GT8,2GTB,2GX4,2GZ7,2GZ8,2GZ9,2H2Z,2HOB,2HSX,2IDY,2JZF,2K7X,2K87,2KAF,2LIZ,2OP9,2OZK,2RNK,2V6N,2VJ1,2XYQ,2XYR,2XYV,2Z3C,2Z3D,2Z3E,2Z94,2Z9G,2Z9J,2Z9K,2Z9L,2ZU4,2ZU5,3D62,3E91,3E9S,3EA7,3EA8,3EBN,3IWM,3M3V,3MJ5,3R24,3SN8,3SNA,3SNB,3SNC,3SND,3SNE,3SZN,3TIT,3TIU,3TNS,3TNT,3V3M,3VB3,3VB4,3VB5,3VB6,3VB7,4MDS,4MM3,4OVZ,4OW0,5C8S,5C8T,5C8U,5F22,5N19,5N5O,5NFY,5TL6,5TL7,5Y3E,5Y3Q,6JYT,6LNQ,6LNY,6LO0,6NUR,6NUS,6W2A,6W79,6WCO,6XHL,6XHN,6XHO,6XMK,6XOA,7AKU,7C2K,7JOY

>  <Smiles>
O=C(Cc1ccccc1)Nc(cc1)ccc1N(Cc1cscc1)C(Cn1nnc2c1cccc2)=O

$$$$
429464
Actelion Java MolfileCreator 2.0

  0  0  0  0  0  0              0 V3000
M  V30 BEGIN CTAB
M  V30 COUNTS 31 35 0 0 0
M  V30 BEGIN ATOM
M  V30 1 S 0.0 0.0 0.0 0
M  V30 2 C -0.0118 -1.4944 0.0 0
M  V30 3 C 1.4232 0.4744 0.0 0
M  V30 4 C 1.4114 -1.9451 0.0 0
M  V30 5 C 2.3009 -0.7353 0.0 0
M  V30 6 C 1.8621 -3.3684 0.0 0
M  V30 7 N 3.3209 -3.6649 0.0 0
M  V30 8 C 4.3172 -2.5381 0.0 0
M  V30 9 C 3.7716 -5.0881 0.0 0
M  V30 10 C 3.8428 -1.0911 0.0 0
M  V30 11 C 5.7761 -2.8346 0.0 0
M  V30 12 O 5.2305 -5.3847 0.0 0
M  V30 13 C 2.7516 -6.1912 0.0 0
M  V30 14 C 4.8391 0.0355 0.0 0
M  V30 15 C 6.7723 -1.7079 0.0 0
M  V30 16 N 3.2023 -7.6144 0.0 0
M  V30 17 C 6.2979 -0.2609 0.0 0
M  V30 18 N 2.3009 -8.8242 0.0 0
M  V30 19 C 4.6256 -8.0651 0.0 0
M  V30 20 C 7.2942 0.8658 0.0 0
M  V30 21 N 3.1786 -10.034 0.0 0
M  V30 22 C 4.6137 -9.5596 0.0 0
M  V30 23 C 5.9184 -7.3061 0.0 0
M  V30 24 C 6.8198 2.3128 0.0 0
M  V30 25 C 8.7531 0.5693 0.0 0
M  V30 26 C 5.9065 -10.3068 0.0 0
M  V30 27 C 7.2112 -8.0414 0.0 0
M  V30 28 N 7.8161 3.4395 0.0 0
M  V30 29 C 9.7493 1.696 0.0 0
M  V30 30 C 7.1993 -9.5477 0.0 0
M  V30 31 C 9.2749 3.143 0.0 0
M  V30 END ATOM
M  V30 BEGIN BOND
M  V30 1 1 1 2
M  V30 2 1 1 3
M  V30 3 2 2 4
M  V30 4 2 3 5
M  V30 5 1 4 6
M  V30 6 1 6 7
M  V30 7 1 7 8
M  V30 8 1 7 9
M  V30 9 2 8 10
M  V30 10 1 8 11
M  V30 11 2 9 12
M  V30 12 1 9 13
M  V30 13 1 10 14
M  V30 14 2 11 15
M  V30 15 1 13 16
M  V30 16 2 14 17
M  V30 17 1 16 18
M  V30 18 1 16 19
M  V30 19 1 17 20
M  V30 20 2 18 21
M  V30 21 2 19 22
M  V30 22 1 19 23
M  V30 23 2 20 24
M  V30 24 1 20 25
M  V30 25 1 22 26
M  V30 26 2 23 27
M  V30 27 1 24 28
M  V30 28 2 25 29
M  V30 29 2 26 30
M  V30 30 2 28 31
M  V30 31 1 4 5
M  V30 32 1 15 17
M  V30 33 1 21 22
M  V30 34 1 27 30
M  V30 35 1 29 31
M  V30 END BOND
M  V30 END CTAB
M  END
>  <Ligand InChI>
InChI=1S/C24H19N5OS/c30-24(16-29-23-6-2-1-5-22(23)26-27-29)28(15-18-11-13-31-17-18)21-9-7-19(8-10-21)20-4-3-12-25-14-20/h1-14,17H,15-16H2

>  <Ligand InChI Key>
LHBIUOYHJIXRST-UHFFFAOYSA-N

>  <BindingDB MonomerID>
429464

>  <Target Name Assigned by Curator or DataSource>
3C-like proteinase (3CL-PRO)

>  <Target Source Organism According to Curator or DataSource>
Human SARS coronavirus

>  <IC50 (nM)>
970

>  <PMID>
32852058

>  <Ligand HET ID in PDB>


>  <PDB ID(s) for Ligand-Target Complex>


>  <PubChem CID>


>  <PubChem SID>


>  <ChEMBL ID of Ligand>


>  <DrugBank ID of Ligand>


>  <ZINC ID of Ligand>


>  <PDB ID(s) of Target Chain>
1Q2W,1QZ8,1UJ1,1UK2,1UK3,1UK4,1UW7,1WOF,1Z1I,2A5A,2A5I,2A5K,2ACF,2AHM,2ALV,2AMD,2AMQ,2BX3,2BX4,2C3S,2D2D,2DUC,2FAV,2FE8,2FYG,2G9T,2GA6,2GDT,2GRI,2GT7,2GT8,2GTB,2GX4,2GZ7,2GZ8,2GZ9,2H2Z,2HOB,2HSX,2IDY,2JZF,2K7X,2K87,2KAF,2LIZ,2OP9,2OZK,2RNK,2V6N,2VJ1,2XYQ,2XYR,2XYV,2Z3C,2Z3D,2Z3E,2Z94,2Z9G,2Z9J,2Z9K,2Z9L,2ZU4,2ZU5,3D62,3E91,3E9S,3EA7,3EA8,3EBN,3IWM,3M3V,3MJ5,3R24,3SN8,3SNA,3SNB,3SNC,3SND,3SNE,3SZN,3TIT,3TIU,3TNS,3TNT,3V3M,3VB3,3VB4,3VB5,3VB6,3VB7,4MDS,4MM3,4OVZ,4OW0,5C8S,5C8T,5C8U,5F22,5N19,5N5O,5NFY,5TL6,5TL7,5Y3E,5Y3Q,6JYT,6LNQ,6LNY,6LO0,6NUR,6NUS,6W2A,6W79,6WCO,6XHL,6XHN,6XHO,6XMK,6XOA,7AKU,7C2K,7JOY

>  <Smiles>
O=C(Cn1nnc2c1cccc2)N(Cc1cscc1)c(cc1)ccc1-c1cnccc1

$$$$
429465
Actelion Java MolfileCreator 2.0

  0  0  0  0  0  0              0 V3000
M  V30 BEGIN CTAB
M  V30 COUNTS 31 35 0 0 0
M  V30 BEGIN ATOM
M  V30 1 S 0.0 0.0 0.0 0
M  V30 2 C -0.0118 -1.4944 0.0 0
M  V30 3 C 1.4232 0.4744 0.0 0
M  V30 4 C 1.4114 -1.9451 0.0 0
M  V30 5 C 2.3009 -0.7353 0.0 0
M  V30 6 C 1.8621 -3.3684 0.0 0
M  V30 7 N 3.3209 -3.6649 0.0 0
M  V30 8 C 4.3172 -2.5381 0.0 0
M  V30 9 C 3.7716 -5.0881 0.0 0
M  V30 10 C 3.8428 -1.0911 0.0 0
M  V30 11 C 5.7761 -2.8346 0.0 0
M  V30 12 O 5.2305 -5.3847 0.0 0
M  V30 13 C 2.7516 -6.1912 0.0 0
M  V30 14 C 4.8391 0.0355 0.0 0
M  V30 15 C 6.7723 -1.7079 0.0 0
M  V30 16 N 3.2023 -7.6144 0.0 0
M  V30 17 C 6.2979 -0.2609 0.0 0
M  V30 18 N 2.3009 -8.8242 0.0 0
M  V30 19 C 4.6256 -8.0651 0.0 0
M  V30 20 C 7.2942 0.8658 0.0 0
M  V30 21 N 3.1786 -10.034 0.0 0
M  V30 22 C 4.6137 -9.5596 0.0 0
M  V30 23 C 5.9184 -7.3061 0.0 0
M  V30 24 C 6.8198 2.3128 0.0 0
M  V30 25 C 8.7531 0.5693 0.0 0
M  V30 26 C 5.9065 -10.3068 0.0 0
M  V30 27 C 7.2112 -8.0414 0.0 0
M  V30 28 C 7.8161 3.4395 0.0 0
M  V30 29 C 9.7493 1.696 0.0 0
M  V30 30 C 7.1993 -9.5477 0.0 0
M  V30 31 C 9.2749 3.143 0.0 0
M  V30 END ATOM
M  V30 BEGIN BOND
M  V30 1 1 1 2
M  V30 2 1 1 3
M  V30 3 2 2 4
M  V30 4 2 3 5
M  V30 5 1 4 6
M  V30 6 1 6 7
M  V30 7 1 7 8
M  V30 8 1 7 9
M  V30 9 2 8 10
M  V30 10 1 8 11
M  V30 11 2 9 12
M  V30 12 1 9 13
M  V30 13 1 10 14
M  V30 14 2 11 15
M  V30 15 1 13 16
M  V30 16 2 14 17
M  V30 17 1 16 18
M  V30 18 1 16 19
M  V30 19 1 17 20
M  V30 20 2 18 21
M  V30 21 2 19 22
M  V30 22 1 19 23
M  V30 23 2 20 24
M  V30 24 1 20 25
M  V30 25 1 22 26
M  V30 26 2 23 27
M  V30 27 1 24 28
M  V30 28 2 25 29
M  V30 29 2 26 30
M  V30 30 2 28 31
M  V30 31 1 4 5
M  V30 32 1 15 17
M  V30 33 1 21 22
M  V30 34 1 27 30
M  V30 35 1 29 31
M  V30 END BOND
M  V30 END CTAB
M  END
>  <Ligand InChI>
InChI=1S/C25H20N4OS/c30-25(17-29-24-9-5-4-8-23(24)26-27-29)28(16-19-14-15-31-18-19)22-12-10-21(11-13-22)20-6-2-1-3-7-20/h1-15,18H,16-17H2

>  <Ligand InChI Key>
BRLBTOJQLXGOHO-UHFFFAOYSA-N

>  <BindingDB MonomerID>
429465

>  <Target Name Assigned by Curator or DataSource>
3C-like proteinase (3CL-PRO)

>  <Target Source Organism According to Curator or DataSource>
Human SARS coronavirus

>  <IC50 (nM)>
510

>  <PMID>
32852058

>  <Ligand HET ID in PDB>


>  <PDB ID(s) for Ligand-Target Complex>


>  <PubChem CID>


>  <PubChem SID>


>  <ChEMBL ID of Ligand>


>  <DrugBank ID of Ligand>


>  <ZINC ID of Ligand>


>  <PDB ID(s) of Target Chain>
1Q2W,1QZ8,1UJ1,1UK2,1UK3,1UK4,1UW7,1WOF,1Z1I,2A5A,2A5I,2A5K,2ACF,2AHM,2ALV,2AMD,2AMQ,2BX3,2BX4,2C3S,2D2D,2DUC,2FAV,2FE8,2FYG,2G9T,2GA6,2GDT,2GRI,2GT7,2GT8,2GTB,2GX4,2GZ7,2GZ8,2GZ9,2H2Z,2HOB,2HSX,2IDY,2JZF,2K7X,2K87,2KAF,2LIZ,2OP9,2OZK,2RNK,2V6N,2VJ1,2XYQ,2XYR,2XYV,2Z3C,2Z3D,2Z3E,2Z94,2Z9G,2Z9J,2Z9K,2Z9L,2ZU4,2ZU5,3D62,3E91,3E9S,3EA7,3EA8,3EBN,3IWM,3M3V,3MJ5,3R24,3SN8,3SNA,3SNB,3SNC,3SND,3SNE,3SZN,3TIT,3TIU,3TNS,3TNT,3V3M,3VB3,3VB4,3VB5,3VB6,3VB7,4MDS,4MM3,4OVZ,4OW0,5C8S,5C8T,5C8U,5F22,5N19,5N5O,5NFY,5TL6,5TL7,5Y3E,5Y3Q,6JYT,6LNQ,6LNY,6LO0,6NUR,6NUS,6W2A,6W79,6WCO,6XHL,6XHN,6XHO,6XMK,6XOA,7AKU,7C2K,7JOY

>  <Smiles>
O=C(Cn1nnc2c1cccc2)N(Cc1cscc1)c(cc1)ccc1-c1ccccc1

$$$$
429468
Actelion Java MolfileCreator 2.0

  0  0  0  0  0  0              0 V3000
M  V30 BEGIN CTAB
M  V30 COUNTS 29 33 0 0 0
M  V30 BEGIN ATOM
M  V30 1 O 0.0 0.0 0.0 0
M  V30 2 C -0.7637 1.3042 0.0 0
M  V30 3 C -0.0234 2.6084 0.0 0
M  V30 4 C -2.2677 1.3159 0.0 0
M  V30 5 O 1.4569 2.6202 0.0 0
M  V30 6 C -0.7872 3.9126 0.0 0
M  V30 7 C -3.0314 2.6202 0.0 0
M  V30 8 C -2.2912 3.9244 0.0 0
M  V30 9 C -0.0469 5.2169 0.0 0
M  V30 10 C -4.5354 2.6319 0.0 0
M  V30 11 C -3.0549 5.2286 0.0 0
M  V30 12 C -5.2874 3.9361 0.0 0
M  V30 13 C -5.2874 1.3512 0.0 0
M  V30 14 C -4.5589 5.2404 0.0 0
M  V30 15 C -6.7913 3.9479 0.0 0 CFG=2
M  V30 16 C -6.7913 1.3629 0.0 0
M  V30 17 C -7.5433 2.6672 0.0 0 CFG=1
M  V30 18 C -7.5433 5.2521 0.0 0
M  V30 19 C -6.0628 5.2521 0.0 0
M  V30 20 C -9.0473 2.6789 0.0 0
M  V30 21 C -8.2953 1.3864 0.0 0
M  V30 22 C -9.0473 5.2639 0.0 0
M  V30 23 C -9.811 3.9831 0.0 0 CFG=1
M  V30 24 C -9.811 1.3982 0.0 0
M  V30 25 C -11.315 3.9949 0.0 0
M  V30 26 C -10.563 5.2874 0.0 0
M  V30 27 C -11.315 1.4099 0.0 0
M  V30 28 C -12.067 2.7142 0.0 0
M  V30 29 C -12.067 0.1292 0.0 0
M  V30 END ATOM
M  V30 BEGIN BOND
M  V30 1 2 1 2
M  V30 2 1 2 3
M  V30 3 1 2 4
M  V30 4 1 3 5
M  V30 5 2 3 6
M  V30 6 2 4 7
M  V30 7 1 6 8
M  V30 8 1 6 9
M  V30 9 1 7 10
M  V30 10 2 8 11
M  V30 11 1 10 12
M  V30 12 1 10 13
M  V30 13 1 11 14
M  V30 14 1 12 15
M  V30 15 1 13 16
M  V30 16 1 15 17
M  V30 17 1 15 18
M  V30 18 1 15 19 CFG=1
M  V30 19 1 17 20
M  V30 20 1 17 21 CFG=3
M  V30 21 1 18 22
M  V30 22 1 20 23
M  V30 23 1 20 24
M  V30 24 1 23 25
M  V30 25 1 23 26 CFG=1
M  V30 26 1 24 27
M  V30 27 1 25 28
M  V30 28 1 27 29
M  V30 29 1 7 8
M  V30 30 2 12 14
M  V30 31 1 16 17
M  V30 32 1 22 23
M  V30 33 2 27 28
M  V30 END BOND
M  V30 BEGIN COLLECTION
M  V30 MDLV30/STEABS ATOMS=(3 15 17 23)
M  V30 END COLLECTION
M  V30 END CTAB
M  END
>  <Ligand InChI>
InChI=1S/C27H34O2/c1-16-8-10-25(3)12-13-26(4)21-7-6-18-17(2)24(29)22(28)15-20(18)19(21)9-11-27(26,5)23(25)14-16/h6-8,15,19,23,29H,9-14H2,1-5H3/t19?,23?,25-,26-,27+/m1/s1

>  <Ligand InChI Key>
SORBLAVXYAQHEG-PAIAULSUSA-N

>  <BindingDB MonomerID>
429468

>  <Target Name Assigned by Curator or DataSource>
3C-like proteinase (3CL-PRO)

>  <Target Source Organism According to Curator or DataSource>
Human SARS coronavirus

>  <IC50 (nM)>
2600

>  <PMID>
32852058

>  <Ligand HET ID in PDB>


>  <PDB ID(s) for Ligand-Target Complex>


>  <PubChem CID>


>  <PubChem SID>


>  <ChEMBL ID of Ligand>


>  <DrugBank ID of Ligand>


>  <ZINC ID of Ligand>


>  <PDB ID(s) of Target Chain>
1Q2W,1QZ8,1UJ1,1UK2,1UK3,1UK4,1UW7,1WOF,1Z1I,2A5A,2A5I,2A5K,2ACF,2AHM,2ALV,2AMD,2AMQ,2BX3,2BX4,2C3S,2D2D,2DUC,2FAV,2FE8,2FYG,2G9T,2GA6,2GDT,2GRI,2GT7,2GT8,2GTB,2GX4,2GZ7,2GZ8,2GZ9,2H2Z,2HOB,2HSX,2IDY,2JZF,2K7X,2K87,2KAF,2LIZ,2OP9,2OZK,2RNK,2V6N,2VJ1,2XYQ,2XYR,2XYV,2Z3C,2Z3D,2Z3E,2Z94,2Z9G,2Z9J,2Z9K,2Z9L,2ZU4,2ZU5,3D62,3E91,3E9S,3EA7,3EA8,3EBN,3IWM,3M3V,3MJ5,3R24,3SN8,3SNA,3SNB,3SNC,3SND,3SNE,3SZN,3TIT,3TIU,3TNS,3TNT,3V3M,3VB3,3VB4,3VB5,3VB6,3VB7,4MDS,4MM3,4OVZ,4OW0,5C8S,5C8T,5C8U,5F22,5N19,5N5O,5NFY,5TL6,5TL7,5Y3E,5Y3Q,6JYT,6LNQ,6LNY,6LO0,6NUR,6NUS,6W2A,6W79,6WCO,6XHL,6XHN,6XHO,6XMK,6XOA,7AKU,7C2K,7JOY

>  <Smiles>
C[C@](CC1)(CC=C(C)C2)C2[C@](C)(CCC23)[C@@]1(C)C3=CC=C(C(C)=C1O)C2=CC1=O

$$$$
11292
Actelion Java MolfileCreator 2.0

  0  0  0  0  0  0              0 V3000
M  V30 BEGIN CTAB
M  V30 COUNTS 28 29 0 0 0
M  V30 BEGIN ATOM
M  V30 1 Cl 0.0 0.0 0.0 0
M  V30 2 C -0.0118 -1.4928 0.0 0
M  V30 3 C 1.2795 -2.2274 0.0 0
M  V30 4 C -1.3269 -2.2274 0.0 0
M  V30 5 S 2.571 -1.4691 0.0 0
M  V30 6 C 1.2677 -3.7202 0.0 0
M  V30 7 C -1.3388 -3.7202 0.0 0
M  V30 8 O 3.3174 -0.154 0.0 0
M  V30 9 O 1.4928 -0.3909 0.0 0
M  V30 10 C 4.0638 -1.4572 0.0 0
M  V30 11 C -0.0473 -4.4548 0.0 0
M  V30 12 Cl -2.6539 -4.4548 0.0 0
M  V30 13 C 4.751 -2.7724 0.0 0
M  V30 14 C 4.8576 -0.1777 0.0 0
M  V30 15 C -0.0592 -5.9476 0.0 0
M  V30 16 N 3.9335 -4.0282 0.0 0 CHG=1
M  V30 17 C 6.2438 -2.8198 0.0 0
M  V30 18 N 4.1467 1.161 0.0 0 CHG=1
M  V30 19 C 6.3504 -0.2251 0.0 0
M  V30 20 O 2.4169 -3.9572 0.0 0
M  V30 21 O 4.6206 -5.3434 0.0 0 CHG=-1
M  V30 22 C 7.0376 -1.5402 0.0 0
M  V30 23 O 2.642 1.398 0.0 0
M  V30 24 O 5.2012 2.2392 0.0 0 CHG=-1
M  V30 25 C 8.5305 -1.5876 0.0 0
M  V30 26 F 8.5423 -0.071 0.0 0
M  V30 27 F 10.0233 -1.5757 0.0 0
M  V30 28 F 8.4949 -3.0804 0.0 0
M  V30 END ATOM
M  V30 BEGIN BOND
M  V30 1 1 1 2
M  V30 2 2 2 3
M  V30 3 1 2 4
M  V30 4 1 3 5
M  V30 5 1 3 6
M  V30 6 2 4 7
M  V30 7 2 5 8
M  V30 8 2 5 9
M  V30 9 1 5 10
M  V30 10 2 6 11
M  V30 11 1 7 12
M  V30 12 2 10 13
M  V30 13 1 10 14
M  V30 14 1 11 15
M  V30 15 1 13 16
M  V30 16 1 13 17
M  V30 17 1 14 18
M  V30 18 2 14 19
M  V30 19 2 16 20
M  V30 20 1 16 21
M  V30 21 2 17 22
M  V30 22 2 18 23
M  V30 23 1 18 24
M  V30 24 1 22 25
M  V30 25 1 25 26
M  V30 26 1 25 27
M  V30 27 1 25 28
M  V30 28 1 7 11
M  V30 29 1 19 22
M  V30 END BOND
M  V30 END CTAB
M  END
>  <Ligand InChI>
InChI=1S/C14H7Cl2F3N2O6S/c1-6-2-12(9(16)5-8(6)15)28(26,27)13-10(20(22)23)3-7(14(17,18)19)4-11(13)21(24)25/h2-5H,1H3

>  <Ligand InChI Key>
INAZPZCJNPPHGV-UHFFFAOYSA-N

>  <BindingDB MonomerID>
11292

>  <Target Name Assigned by Curator or DataSource>
3C-like proteinase (3CL-PRO)

>  <Target Source Organism According to Curator or DataSource>
Human SARS coronavirus

>  <IC50 (nM)>
300

>  <PMID>
32852058

>  <Ligand HET ID in PDB>
D3F

>  <PDB ID(s) for Ligand-Target Complex>
2GZ7

>  <PubChem CID>
2799606

>  <PubChem SID>
46511839

>  <ChEMBL ID of Ligand>


>  <DrugBank ID of Ligand>
DB07620

>  <ZINC ID of Ligand>
ZINC08626709

>  <PDB ID(s) of Target Chain>
1Q2W,1QZ8,1UJ1,1UK2,1UK3,1UK4,1UW7,1WOF,1Z1I,2A5A,2A5I,2A5K,2ACF,2AHM,2ALV,2AMD,2AMQ,2BX3,2BX4,2C3S,2D2D,2DUC,2FAV,2FE8,2FYG,2G9T,2GA6,2GDT,2GRI,2GT7,2GT8,2GTB,2GX4,2GZ7,2GZ8,2GZ9,2H2Z,2HOB,2HSX,2IDY,2JZF,2K7X,2K87,2KAF,2LIZ,2OP9,2OZK,2RNK,2V6N,2VJ1,2XYQ,2XYR,2XYV,2Z3C,2Z3D,2Z3E,2Z94,2Z9G,2Z9J,2Z9K,2Z9L,2ZU4,2ZU5,3D62,3E91,3E9S,3EA7,3EA8,3EBN,3IWM,3M3V,3MJ5,3R24,3SN8,3SNA,3SNB,3SNC,3SND,3SNE,3SZN,3TIT,3TIU,3TNS,3TNT,3V3M,3VB3,3VB4,3VB5,3VB6,3VB7,4MDS,4MM3,4OVZ,4OW0,5C8S,5C8T,5C8U,5F22,5N19,5N5O,5NFY,5TL6,5TL7,5Y3E,5Y3Q,6JYT,6LNQ,6LNY,6LO0,6NUR,6NUS,6W2A,6W79,6WCO,6XHL,6XHN,6XHO,6XMK,6XOA,7AKU,7C2K,7JOY

>  <Smiles>
Cc(c(Cl)c1)cc(S(c(c([N+]([O-])=O)cc(C(F)(F)F)c2)c2[N+]([O-])=O)(=O)=O)c1Cl

$$$$
11304
Actelion Java MolfileCreator 2.0

  0  0  0  0  0  0              0 V3000
M  V30 BEGIN CTAB
M  V30 COUNTS 25 27 0 0 0
M  V30 BEGIN ATOM
M  V30 1 S 0.0 0.0 0.0 0
M  V30 2 C 1.4166 -0.4485 0.0 0
M  V30 3 C -1.1214 -0.9916 0.0 0
M  V30 4 N 1.877 -1.8652 0.0 0
M  V30 5 N 2.6089 0.4485 0.0 0
M  V30 6 O -0.8263 -2.4436 0.0 0
M  V30 7 C -2.5617 -0.5194 0.0 0
M  V30 8 N 3.3644 -1.8416 0.0 0
M  V30 9 C 3.813 -0.4131 0.0 0
M  V30 10 O -3.7894 -1.393 0.0 0
M  V30 11 C -3.0339 0.9208 0.0 0
M  V30 12 C 5.2297 0.0708 0.0 0
M  V30 13 C -5.0172 -0.4958 0.0 0
M  V30 14 C -4.545 0.9326 0.0 0
M  V30 15 F 5.5248 1.5464 0.0 0
M  V30 16 F 6.6463 0.5548 0.0 0
M  V30 17 F 6.3394 -0.909 0.0 0
M  V30 18 C -6.4574 -0.9444 0.0 0
M  V30 19 C -7.9213 -1.3221 0.0 0
M  V30 20 C -9.3851 -1.6999 0.0 0
M  V30 21 C -10.6955 -0.9444 0.0 0
M  V30 22 C -9.3969 -3.1874 0.0 0
M  V30 23 C -12.0059 -1.6763 0.0 0
M  V30 24 C -10.7073 -3.9193 0.0 0
M  V30 25 C -12.0177 -3.1638 0.0 0
M  V30 END ATOM
M  V30 BEGIN BOND
M  V30 1 1 1 2
M  V30 2 1 1 3
M  V30 3 2 2 4
M  V30 4 1 2 5
M  V30 5 2 3 6
M  V30 6 1 3 7
M  V30 7 1 4 8
M  V30 8 1 5 9
M  V30 9 1 7 10
M  V30 10 2 7 11
M  V30 11 1 9 12
M  V30 12 1 10 13
M  V30 13 1 11 14
M  V30 14 1 12 15
M  V30 15 1 12 16
M  V30 16 1 12 17
M  V30 17 1 13 18
M  V30 18 3 18 19
M  V30 19 1 19 20
M  V30 20 2 20 21
M  V30 21 1 20 22
M  V30 22 1 21 23
M  V30 23 2 22 24
M  V30 24 2 23 25
M  V30 25 2 8 9
M  V30 26 2 13 14
M  V30 27 1 24 25
M  V30 END BOND
M  V30 END CTAB
M  END
>  <Ligand InChI>
InChI=1S/C16H8F3N3O2S/c17-16(18,19)14-20-15(22-21-14)25-13(23)12-9-8-11(24-12)7-6-10-4-2-1-3-5-10/h1-5,8-9H,(H,20,21,22)

>  <Ligand InChI Key>
VNGWUVBXUIDQTK-UHFFFAOYSA-N

>  <BindingDB MonomerID>
11304

>  <Target Name Assigned by Curator or DataSource>
3C-like proteinase (3CL-PRO)

>  <Target Source Organism According to Curator or DataSource>
Human SARS coronavirus

>  <IC50 (nM)>
3000

>  <PMID>
32852058

>  <Ligand HET ID in PDB>
F3F

>  <PDB ID(s) for Ligand-Target Complex>
2GZ8

>  <PubChem CID>
2822496

>  <PubChem SID>
46511851

>  <ChEMBL ID of Ligand>


>  <DrugBank ID of Ligand>
DB07743

>  <ZINC ID of Ligand>
ZINC01039846

>  <PDB ID(s) of Target Chain>
1Q2W,1QZ8,1UJ1,1UK2,1UK3,1UK4,1UW7,1WOF,1Z1I,2A5A,2A5I,2A5K,2ACF,2AHM,2ALV,2AMD,2AMQ,2BX3,2BX4,2C3S,2D2D,2DUC,2FAV,2FE8,2FYG,2G9T,2GA6,2GDT,2GRI,2GT7,2GT8,2GTB,2GX4,2GZ7,2GZ8,2GZ9,2H2Z,2HOB,2HSX,2IDY,2JZF,2K7X,2K87,2KAF,2LIZ,2OP9,2OZK,2RNK,2V6N,2VJ1,2XYQ,2XYR,2XYV,2Z3C,2Z3D,2Z3E,2Z94,2Z9G,2Z9J,2Z9K,2Z9L,2ZU4,2ZU5,3D62,3E91,3E9S,3EA7,3EA8,3EBN,3IWM,3M3V,3MJ5,3R24,3SN8,3SNA,3SNB,3SNC,3SND,3SNE,3SZN,3TIT,3TIU,3TNS,3TNT,3V3M,3VB3,3VB4,3VB5,3VB6,3VB7,4MDS,4MM3,4OVZ,4OW0,5C8S,5C8T,5C8U,5F22,5N19,5N5O,5NFY,5TL6,5TL7,5Y3E,5Y3Q,6JYT,6LNQ,6LNY,6LO0,6NUR,6NUS,6W2A,6W79,6WCO,6XHL,6XHN,6XHO,6XMK,6XOA,7AKU,7C2K,7JOY

>  <Smiles>
O=C(c1ccc(C#Cc2ccccc2)o1)Sc1nnc(C(F)(F)F)[nH]1

$$$$
429362
Actelion Java MolfileCreator 2.0

  0  0  0  0  0  0              0 V3000
M  V30 BEGIN CTAB
M  V30 COUNTS 32 35 0 0 0
M  V30 BEGIN ATOM
M  V30 1 O 0.0 0.0 0.0 0
M  V30 2 N -0.0303 -1.4848 0.0 0 CHG=1
M  V30 3 O 1.2424 -2.2424 0.0 0 CHG=-1
M  V30 4 C -1.3484 -2.2121 0.0 0
M  V30 5 C -2.6515 -1.4242 0.0 0
M  V30 6 C -1.3787 -3.6969 0.0 0
M  V30 7 C -3.9696 -2.1515 0.0 0
M  V30 8 C -2.6515 0.0909 0.0 0
M  V30 9 C -2.6969 -4.4242 0.0 0
M  V30 10 C -3.9999 -3.6363 0.0 0
M  V30 11 C -3.9545 0.8787 0.0 0
M  V30 12 C -1.3636 0.8484 0.0 0
M  V30 13 C -3.9545 2.3939 0.0 0
M  V30 14 C -5.2727 0.1515 0.0 0
M  V30 15 C -0.6969 0.2727 0.0 0
M  V30 16 C -1.3636 2.3636 0.0 0
M  V30 17 N -2.6666 3.1514 0.0 0
M  V30 18 C -5.2575 3.1818 0.0 0
M  V30 19 O -6.5757 0.9393 0.0 0
M  V30 20 O -5.303 -1.3333 0.0 0
M  V30 21 O -0.7272 -1.2121 0.0 0
M  V30 22 C 1.2121 0.8484 0.0 0
M  V30 23 C -0.0757 3.1211 0.0 0
M  V30 24 C -6.6211 -2.0605 0.0 0
M  V30 25 C 1.2121 2.3636 0.0 0
M  V30 26 C -6.6514 -3.5454 0.0 0
M  V30 27 C -7.9696 -4.2727 0.0 0
M  V30 28 C -7.9999 -5.7575 0.0 0
M  V30 29 C -9.2726 -3.4848 0.0 0
M  V30 30 C -9.3181 -6.4848 0.0 0
M  V30 31 C -10.5908 -4.2121 0.0 0
M  V30 32 C -10.6211 -5.6969 0.0 0
M  V30 END ATOM
M  V30 BEGIN BOND
M  V30 1 2 1 2
M  V30 2 1 2 3
M  V30 3 1 2 4
M  V30 4 2 4 5
M  V30 5 1 4 6
M  V30 6 1 5 7
M  V30 7 1 5 8
M  V30 8 2 6 9
M  V30 9 2 7 10
M  V30 10 1 8 11
M  V30 11 1 8 12
M  V30 12 2 11 13
M  V30 13 1 11 14
M  V30 14 1 12 15
M  V30 15 1 12 16
M  V30 16 1 13 17
M  V30 17 1 13 18
M  V30 18 2 14 19
M  V30 19 1 14 20
M  V30 20 2 15 21
M  V30 21 1 15 22
M  V30 22 1 16 23
M  V30 23 1 20 24
M  V30 24 1 22 25
M  V30 25 1 24 26
M  V30 26 1 26 27
M  V30 27 2 27 28
M  V30 28 1 27 29
M  V30 29 1 28 30
M  V30 30 2 29 31
M  V30 31 2 30 32
M  V30 32 1 9 10
M  V30 33 1 16 17
M  V30 34 1 23 25
M  V30 35 1 31 32
M  V30 END BOND
M  V30 END CTAB
M  END
>  <Ligand InChI>
InChI=1/C25H26N2O5/c1-16-22(25(29)32-15-14-17-8-3-2-4-9-17)23(18-10-5-6-12-20(18)27(30)31)24-19(26-16)11-7-13-21(24)28/h2-6,8-10,12,19,23-24,26H,7,11,13-15H2,1H3

>  <Ligand InChI Key>
TYYASYBDGIPMJT-UHFFFAOYNA-N

>  <BindingDB MonomerID>
429362

>  <Target Name Assigned by Curator or DataSource>
3C-like proteinase (3CL-PRO)

>  <Target Source Organism According to Curator or DataSource>
Human SARS coronavirus

>  <IC50 (nM)>
2500

>  <PMID>
32852058

>  <Ligand HET ID in PDB>


>  <PDB ID(s) for Ligand-Target Complex>


>  <PubChem CID>


>  <PubChem SID>


>  <ChEMBL ID of Ligand>


>  <DrugBank ID of Ligand>


>  <ZINC ID of Ligand>


>  <PDB ID(s) of Target Chain>
1Q2W,1QZ8,1UJ1,1UK2,1UK3,1UK4,1UW7,1WOF,1Z1I,2A5A,2A5I,2A5K,2ACF,2AHM,2ALV,2AMD,2AMQ,2BX3,2BX4,2C3S,2D2D,2DUC,2FAV,2FE8,2FYG,2G9T,2GA6,2GDT,2GRI,2GT7,2GT8,2GTB,2GX4,2GZ7,2GZ8,2GZ9,2H2Z,2HOB,2HSX,2IDY,2JZF,2K7X,2K87,2KAF,2LIZ,2OP9,2OZK,2RNK,2V6N,2VJ1,2XYQ,2XYR,2XYV,2Z3C,2Z3D,2Z3E,2Z94,2Z9G,2Z9J,2Z9K,2Z9L,2ZU4,2ZU5,3D62,3E91,3E9S,3EA7,3EA8,3EBN,3IWM,3M3V,3MJ5,3R24,3SN8,3SNA,3SNB,3SNC,3SND,3SNE,3SZN,3TIT,3TIU,3TNS,3TNT,3V3M,3VB3,3VB4,3VB5,3VB6,3VB7,4MDS,4MM3,4OVZ,4OW0,5C8S,5C8T,5C8U,5F22,5N19,5N5O,5NFY,5TL6,5TL7,5Y3E,5Y3Q,6JYT,6LNQ,6LNY,6LO0,6NUR,6NUS,6W2A,6W79,6WCO,6XHL,6XHN,6XHO,6XMK,6XOA,7AKU,7C2K,7JOY

>  <Smiles>
CC(NC(CCC1)C(C2c(cccc3)c3[N+]([O-])=O)C1=O)=C2C(OCCc1ccccc1)=O

$$$$
31524
Actelion Java MolfileCreator 2.0

  0  0  0  0  0  0              0 V3000
M  V30 BEGIN CTAB
M  V30 COUNTS 23 25 0 0 0
M  V30 BEGIN ATOM
M  V30 1 O 0.0 0.0 0.0 0
M  V30 2 C -0.0117 -1.4863 0.0 0
M  V30 3 N -1.3211 -2.2294 0.0 0
M  V30 4 C 1.2739 -2.2294 0.0 0
M  V30 5 C -2.6305 -1.4627 0.0 0 CFG=2
M  V30 6 C 2.5597 -1.4627 0.0 0
M  V30 7 C 1.2621 -3.7157 0.0 0
M  V30 8 C -3.9399 -2.2058 0.0 0
M  V30 9 C -2.6423 0.0471 0.0 0
M  V30 10 C 3.8455 -2.2058 0.0 0
M  V30 11 C 2.5479 0.0471 0.0 0
M  V30 12 C 2.5479 -4.4471 0.0 0
M  V30 13 C -5.2256 -1.4037 0.0 0
M  V30 14 C -3.9988 -3.6921 0.0 0
M  V30 15 C 3.8337 -3.6921 0.0 0
M  V30 16 N 2.5361 -5.9334 0.0 0
M  V30 17 C -6.5586 -2.0997 0.0 0
M  V30 18 C -5.1903 0.1061 0.0 0
M  V30 19 C -5.3318 -4.3881 0.0 0
M  V30 20 C -6.6176 -3.586 0.0 0
M  V30 21 C -7.8444 -1.2975 0.0 0
M  V30 22 C -6.476 0.9083 0.0 0
M  V30 23 C -7.809 0.2123 0.0 0
M  V30 END ATOM
M  V30 BEGIN BOND
M  V30 1 2 1 2
M  V30 2 1 2 3
M  V30 3 1 2 4
M  V30 4 1 5 3 CFG=3
M  V30 5 2 4 6
M  V30 6 1 4 7
M  V30 7 1 5 8
M  V30 8 1 5 9
M  V30 9 1 6 10
M  V30 10 1 6 11
M  V30 11 2 7 12
M  V30 12 1 8 13
M  V30 13 2 8 14
M  V30 14 2 10 15
M  V30 15 1 12 16
M  V30 16 1 13 17
M  V30 17 2 13 18
M  V30 18 1 14 19
M  V30 19 1 17 20
M  V30 20 2 17 21
M  V30 21 1 18 22
M  V30 22 1 21 23
M  V30 23 1 12 15
M  V30 24 2 19 20
M  V30 25 2 22 23
M  V30 END BOND
M  V30 BEGIN COLLECTION
M  V30 MDLV30/STERAC1 ATOMS=(1 5)
M  V30 END COLLECTION
M  V30 END CTAB
M  END
>  <Ligand InChI>
InChI=1/C20H20N2O/c1-13-10-11-16(21)12-19(13)20(23)22-14(2)17-9-5-7-15-6-3-4-8-18(15)17/h3-12,14H,21H2,1-2H3,(H,22,23)/t14-/s2

>  <Ligand InChI Key>
UVERBUNNCOKGNZ-YQTOOIBONA-N

>  <BindingDB MonomerID>
31524

>  <Target Name Assigned by Curator or DataSource>
Papain-like protease (PLpro)

>  <Target Source Organism According to Curator or DataSource>


>  <IC50 (nM)>
600

>  <PMID>
32852058

>  <Ligand HET ID in PDB>
TTT

>  <PDB ID(s) for Ligand-Target Complex>
3E9S

>  <PubChem CID>
24941262

>  <PubChem SID>
172097425

>  <ChEMBL ID of Ligand>


>  <DrugBank ID of Ligand>
DB08656

>  <ZINC ID of Ligand>
ZINC43012570

>  <PDB ID(s) of Target Chain>
1Q2W,1QZ8,1UJ1,1UK2,1UK3,1UK4,1UW7,1WOF,1Z1I,2A5A,2A5I,2A5K,2ACF,2AHM,2ALV,2AMD,2AMQ,2BX3,2BX4,2C3S,2D2D,2DUC,2FAV,2FE8,2FYG,2G9T,2GA6,2GDT,2GRI,2GT7,2GT8,2GTB,2GX4,2GZ7,2GZ8,2GZ9,2H2Z,2HOB,2HSX,2IDY,2JZF,2K7X,2K87,2KAF,2LIZ,2OP9,2RNK,2V6N,2VJ1,2XYQ,2XYR,2XYV,2Z3C,2Z3D,2Z3E,2Z94,2Z9G,2Z9J,2Z9K,2Z9L,2ZU4,2ZU5,3D62,3E91,3E9S,3EA7,3EA8,3EBN,3IWM,3M3V,3MJ5,3R24,3SN8,3SNA,3SNB,3SNC,3SND,3SNE,3SZN,3TIT,3TIU,3TNS,3TNT,3V3M,3VB3,3VB4,3VB5,3VB6,3VB7,4MDS,4MM3,4OVZ,4OW0,5C8S,5C8T,5C8U,5F22,5N19,5N5O,5NFY,5TL6,5TL7,5Y3E,5Y3Q,6LNQ,6LNY,6LO0,6NUR,6NUS,6W2A,6W79,6WCO,6XHL,6XHN,6XHO,6XMK,6XOA,7AKU,7JOY

>  <Smiles>
CC(c1cccc2ccccc12)NC(c1c(C)ccc(N)c1)=O

$$$$
31523
Actelion Java MolfileCreator 2.0

  0  0  0  0  0  0              0 V3000
M  V30 BEGIN CTAB
M  V30 COUNTS 26 28 0 0 0
M  V30 BEGIN ATOM
M  V30 1 O 0.0 0.0 0.0 0
M  V30 2 C -0.0118 -1.4874 0.0 0
M  V30 3 N -1.3221 -2.2311 0.0 0
M  V30 4 C 1.2749 -2.2311 0.0 0
M  V30 5 C -2.6325 -1.4638 0.0 0 CFG=2
M  V30 6 C 2.5616 -1.4638 0.0 0
M  V30 7 C 1.2631 -3.7185 0.0 0
M  V30 8 C -3.9428 -2.2075 0.0 0
M  V30 9 C -2.6443 0.0472 0.0 0
M  V30 10 C 3.8484 -2.2075 0.0 0
M  V30 11 C 2.5498 0.0472 0.0 0
M  V30 12 C 2.5498 -4.4504 0.0 0
M  V30 13 C -5.2296 -1.4047 0.0 0
M  V30 14 C -4.0018 -3.6949 0.0 0
M  V30 15 C 3.8366 -3.6949 0.0 0
M  V30 16 N 2.538 -5.9379 0.0 0
M  V30 17 C -6.5635 -2.1012 0.0 0
M  V30 18 C -5.1942 0.1062 0.0 0
M  V30 19 C -5.3358 -4.3914 0.0 0
M  V30 20 C 3.8248 -6.6816 0.0 0
M  V30 21 C -6.6226 -3.5887 0.0 0
M  V30 22 C -7.8503 -1.2985 0.0 0
M  V30 23 C -6.4809 0.9089 0.0 0
M  V30 24 O 5.1115 -5.9143 0.0 0
M  V30 25 C 3.813 -8.169 0.0 0
M  V30 26 C -7.8149 0.2124 0.0 0
M  V30 END ATOM
M  V30 BEGIN BOND
M  V30 1 2 1 2
M  V30 2 1 2 3
M  V30 3 1 2 4
M  V30 4 1 5 3 CFG=3
M  V30 5 2 4 6
M  V30 6 1 4 7
M  V30 7 1 5 8
M  V30 8 1 5 9
M  V30 9 1 6 10
M  V30 10 1 6 11
M  V30 11 2 7 12
M  V30 12 1 8 13
M  V30 13 2 8 14
M  V30 14 2 10 15
M  V30 15 1 12 16
M  V30 16 1 13 17
M  V30 17 2 13 18
M  V30 18 1 14 19
M  V30 19 1 16 20
M  V30 20 1 17 21
M  V30 21 2 17 22
M  V30 22 1 18 23
M  V30 23 2 20 24
M  V30 24 1 20 25
M  V30 25 1 22 26
M  V30 26 1 12 15
M  V30 27 2 19 21
M  V30 28 2 23 26
M  V30 END BOND
M  V30 BEGIN COLLECTION
M  V30 MDLV30/STERAC1 ATOMS=(1 5)
M  V30 END COLLECTION
M  V30 END CTAB
M  END
>  <Ligand InChI>
InChI=1/C22H22N2O2/c1-14-11-12-18(24-16(3)25)13-21(14)22(26)23-15(2)19-10-6-8-17-7-4-5-9-20(17)19/h4-13,15H,1-3H3,(H,23,26)(H,24,25)/t15-/s2

>  <Ligand InChI Key>
KGPYBLOBHQLIET-GGYSOQFKNA-N

>  <BindingDB MonomerID>
31523

>  <Target Name Assigned by Curator or DataSource>
Papain-like protease (PLpro)

>  <Target Source Organism According to Curator or DataSource>


>  <IC50 (nM)>
560

>  <PMID>
32852058

>  <Ligand HET ID in PDB>


>  <PDB ID(s) for Ligand-Target Complex>
3E9S

>  <PubChem CID>
44235889

>  <PubChem SID>
172097424

>  <ChEMBL ID of Ligand>


>  <DrugBank ID of Ligand>


>  <ZINC ID of Ligand>
ZINC43063887

>  <PDB ID(s) of Target Chain>
1Q2W,1QZ8,1UJ1,1UK2,1UK3,1UK4,1UW7,1WOF,1Z1I,2A5A,2A5I,2A5K,2ACF,2AHM,2ALV,2AMD,2AMQ,2BX3,2BX4,2C3S,2D2D,2DUC,2FAV,2FE8,2FYG,2G9T,2GA6,2GDT,2GRI,2GT7,2GT8,2GTB,2GX4,2GZ7,2GZ8,2GZ9,2H2Z,2HOB,2HSX,2IDY,2JZF,2K7X,2K87,2KAF,2LIZ,2OP9,2RNK,2V6N,2VJ1,2XYQ,2XYR,2XYV,2Z3C,2Z3D,2Z3E,2Z94,2Z9G,2Z9J,2Z9K,2Z9L,2ZU4,2ZU5,3D62,3E91,3E9S,3EA7,3EA8,3EBN,3IWM,3M3V,3MJ5,3R24,3SN8,3SNA,3SNB,3SNC,3SND,3SNE,3SZN,3TIT,3TIU,3TNS,3TNT,3V3M,3VB3,3VB4,3VB5,3VB6,3VB7,4MDS,4MM3,4OVZ,4OW0,5C8S,5C8T,5C8U,5F22,5N19,5N5O,5NFY,5TL6,5TL7,5Y3E,5Y3Q,6LNQ,6LNY,6LO0,6NUR,6NUS,6W2A,6W79,6WCO,6XHL,6XHN,6XHO,6XMK,6XOA,7AKU,7JOY

>  <Smiles>
CC(c1cccc2ccccc12)NC(c1c(C)ccc(NC(C)=O)c1)=O

$$$$
31531
Actelion Java MolfileCreator 2.0

  0  0  0  0  0  0              0 V3000
M  V30 BEGIN CTAB
M  V30 COUNTS 24 26 0 0 0
M  V30 BEGIN ATOM
M  V30 1 O 0.0 0.0 0.0 0
M  V30 2 C -0.0118 -1.4868 0.0 0
M  V30 3 N -1.3216 -2.2303 0.0 0
M  V30 4 C 1.2744 -2.2303 0.0 0
M  V30 5 C -2.6315 -1.4632 0.0 0 CFG=2
M  V30 6 C 2.5607 -1.4632 0.0 0
M  V30 7 C 1.2626 -3.7172 0.0 0
M  V30 8 C -3.9414 -2.2067 0.0 0
M  V30 9 C -2.6433 0.0472 0.0 0
M  V30 10 C 3.847 -2.2067 0.0 0
M  V30 11 C 2.5489 0.0472 0.0 0
M  V30 12 C 2.5489 -4.4488 0.0 0
M  V30 13 C -5.2276 -1.4042 0.0 0
M  V30 14 C -4.0004 -3.6936 0.0 0
M  V30 15 C 3.8352 -3.6936 0.0 0
M  V30 16 C 2.5371 -5.9357 0.0 0
M  V30 17 C -6.5611 -2.1005 0.0 0
M  V30 18 C -5.1922 0.1062 0.0 0
M  V30 19 C -5.3338 -4.3898 0.0 0
M  V30 20 N 3.8234 -6.6791 0.0 0
M  V30 21 C -6.6201 -3.5873 0.0 0
M  V30 22 C -7.8474 -1.298 0.0 0
M  V30 23 C -6.4785 0.9086 0.0 0
M  V30 24 C -7.812 0.2124 0.0 0
M  V30 END ATOM
M  V30 BEGIN BOND
M  V30 1 2 1 2
M  V30 2 1 2 3
M  V30 3 1 2 4
M  V30 4 1 5 3 CFG=3
M  V30 5 2 4 6
M  V30 6 1 4 7
M  V30 7 1 5 8
M  V30 8 1 5 9
M  V30 9 1 6 10
M  V30 10 1 6 11
M  V30 11 2 7 12
M  V30 12 1 8 13
M  V30 13 2 8 14
M  V30 14 2 10 15
M  V30 15 1 12 16
M  V30 16 1 13 17
M  V30 17 2 13 18
M  V30 18 1 14 19
M  V30 19 1 16 20
M  V30 20 1 17 21
M  V30 21 2 17 22
M  V30 22 1 18 23
M  V30 23 1 22 24
M  V30 24 1 12 15
M  V30 25 2 19 21
M  V30 26 2 23 24
M  V30 END BOND
M  V30 BEGIN COLLECTION
M  V30 MDLV30/STERAC1 ATOMS=(1 5)
M  V30 END COLLECTION
M  V30 END CTAB
M  END
>  <Ligand InChI>
InChI=1/C21H22N2O/c1-14-10-11-16(13-22)12-20(14)21(24)23-15(2)18-9-5-7-17-6-3-4-8-19(17)18/h3-12,15H,13,22H2,1-2H3,(H,23,24)/t15-/s2

>  <Ligand InChI Key>
BIKTWHWUIKAJAT-GGYSOQFKNA-N

>  <BindingDB MonomerID>
31531

>  <Target Name Assigned by Curator or DataSource>
Papain-like protease (PLpro)

>  <Target Source Organism According to Curator or DataSource>


>  <IC50 (nM)>
460

>  <PMID>
32852058

>  <Ligand HET ID in PDB>


>  <PDB ID(s) for Ligand-Target Complex>


>  <PubChem CID>
44236114

>  <PubChem SID>
172097432

>  <ChEMBL ID of Ligand>


>  <DrugBank ID of Ligand>


>  <ZINC ID of Ligand>
ZINC43071312

>  <PDB ID(s) of Target Chain>
1Q2W,1QZ8,1UJ1,1UK2,1UK3,1UK4,1UW7,1WOF,1Z1I,2A5A,2A5I,2A5K,2ACF,2AHM,2ALV,2AMD,2AMQ,2BX3,2BX4,2C3S,2D2D,2DUC,2FAV,2FE8,2FYG,2G9T,2GA6,2GDT,2GRI,2GT7,2GT8,2GTB,2GX4,2GZ7,2GZ8,2GZ9,2H2Z,2HOB,2HSX,2IDY,2JZF,2K7X,2K87,2KAF,2LIZ,2OP9,2RNK,2V6N,2VJ1,2XYQ,2XYR,2XYV,2Z3C,2Z3D,2Z3E,2Z94,2Z9G,2Z9J,2Z9K,2Z9L,2ZU4,2ZU5,3D62,3E91,3E9S,3EA7,3EA8,3EBN,3IWM,3M3V,3MJ5,3R24,3SN8,3SNA,3SNB,3SNC,3SND,3SNE,3SZN,3TIT,3TIU,3TNS,3TNT,3V3M,3VB3,3VB4,3VB5,3VB6,3VB7,4MDS,4MM3,4OVZ,4OW0,5C8S,5C8T,5C8U,5F22,5N19,5N5O,5NFY,5TL6,5TL7,5Y3E,5Y3Q,6LNQ,6LNY,6LO0,6NUR,6NUS,6W2A,6W79,6WCO,6XHL,6XHN,6XHO,6XMK,6XOA,7AKU,7JOY

>  <Smiles>
CC(c1cccc2ccccc12)NC(c1c(C)ccc(CN)c1)=O

$$$$
31530
Actelion Java MolfileCreator 2.0

  0  0  0  0  0  0              0 V3000
M  V30 BEGIN CTAB
M  V30 COUNTS 25 27 0 0 0
M  V30 BEGIN ATOM
M  V30 1 O 0.0 0.0 0.0 0
M  V30 2 C -0.0118 -1.4869 0.0 0
M  V30 3 N -1.3217 -2.2304 0.0 0
M  V30 4 C 1.2745 -2.2304 0.0 0
M  V30 5 C -2.6317 -1.4633 0.0 0 CFG=2
M  V30 6 C 2.5608 -1.4633 0.0 0
M  V30 7 C 1.2627 -3.7174 0.0 0
M  V30 8 C -3.9416 -2.2068 0.0 0
M  V30 9 C -2.6435 0.0472 0.0 0
M  V30 10 C 3.8472 -2.2068 0.0 0
M  V30 11 C 2.549 0.0472 0.0 0
M  V30 12 C 2.549 -4.4491 0.0 0
M  V30 13 C -5.2279 -1.4043 0.0 0
M  V30 14 C -4.0006 -3.6938 0.0 0
M  V30 15 C 3.8354 -3.6938 0.0 0
M  V30 16 C 2.5372 -5.936 0.0 0
M  V30 17 C -6.5615 -2.1006 0.0 0
M  V30 18 C -5.1925 0.1062 0.0 0
M  V30 19 C -5.3342 -4.3901 0.0 0
M  V30 20 N 3.8236 -6.6795 0.0 0
M  V30 21 C -6.6205 -3.5876 0.0 0
M  V30 22 C -7.8478 -1.2981 0.0 0
M  V30 23 C -6.4789 0.9087 0.0 0
M  V30 24 C 5.1099 -5.9124 0.0 0
M  V30 25 C -7.8124 0.2124 0.0 0
M  V30 END ATOM
M  V30 BEGIN BOND
M  V30 1 2 1 2
M  V30 2 1 2 3
M  V30 3 1 2 4
M  V30 4 1 5 3 CFG=3
M  V30 5 2 4 6
M  V30 6 1 4 7
M  V30 7 1 5 8
M  V30 8 1 5 9
M  V30 9 1 6 10
M  V30 10 1 6 11
M  V30 11 2 7 12
M  V30 12 1 8 13
M  V30 13 2 8 14
M  V30 14 2 10 15
M  V30 15 1 12 16
M  V30 16 1 13 17
M  V30 17 2 13 18
M  V30 18 1 14 19
M  V30 19 1 16 20
M  V30 20 1 17 21
M  V30 21 2 17 22
M  V30 22 1 18 23
M  V30 23 1 20 24
M  V30 24 1 22 25
M  V30 25 1 12 15
M  V30 26 2 19 21
M  V30 27 2 23 25
M  V30 END BOND
M  V30 BEGIN COLLECTION
M  V30 MDLV30/STERAC1 ATOMS=(1 5)
M  V30 END COLLECTION
M  V30 END CTAB
M  END
>  <Ligand InChI>
InChI=1/C22H24N2O/c1-15-11-12-17(14-23-3)13-21(15)22(25)24-16(2)19-10-6-8-18-7-4-5-9-20(18)19/h4-13,16,23H,14H2,1-3H3,(H,24,25)/t16-/s2

>  <Ligand InChI Key>
SIBDAZDNSVDATL-XISACWJONA-N

>  <BindingDB MonomerID>
31530

>  <Target Name Assigned by Curator or DataSource>
Papain-like protease (PLpro)

>  <Target Source Organism According to Curator or DataSource>


>  <IC50 (nM)>
1230

>  <PMID>
32852058

>  <Ligand HET ID in PDB>


>  <PDB ID(s) for Ligand-Target Complex>


>  <PubChem CID>
44236357

>  <PubChem SID>
172097431

>  <ChEMBL ID of Ligand>


>  <DrugBank ID of Ligand>


>  <ZINC ID of Ligand>
ZINC42922212

>  <PDB ID(s) of Target Chain>
1Q2W,1QZ8,1UJ1,1UK2,1UK3,1UK4,1UW7,1WOF,1Z1I,2A5A,2A5I,2A5K,2ACF,2AHM,2ALV,2AMD,2AMQ,2BX3,2BX4,2C3S,2D2D,2DUC,2FAV,2FE8,2FYG,2G9T,2GA6,2GDT,2GRI,2GT7,2GT8,2GTB,2GX4,2GZ7,2GZ8,2GZ9,2H2Z,2HOB,2HSX,2IDY,2JZF,2K7X,2K87,2KAF,2LIZ,2OP9,2RNK,2V6N,2VJ1,2XYQ,2XYR,2XYV,2Z3C,2Z3D,2Z3E,2Z94,2Z9G,2Z9J,2Z9K,2Z9L,2ZU4,2ZU5,3D62,3E91,3E9S,3EA7,3EA8,3EBN,3IWM,3M3V,3MJ5,3R24,3SN8,3SNA,3SNB,3SNC,3SND,3SNE,3SZN,3TIT,3TIU,3TNS,3TNT,3V3M,3VB3,3VB4,3VB5,3VB6,3VB7,4MDS,4MM3,4OVZ,4OW0,5C8S,5C8T,5C8U,5F22,5N19,5N5O,5NFY,5TL6,5TL7,5Y3E,5Y3Q,6LNQ,6LNY,6LO0,6NUR,6NUS,6W2A,6W79,6WCO,6XHL,6XHN,6XHO,6XMK,6XOA,7AKU,7JOY

>  <Smiles>
CC(c1cccc2ccccc12)NC(c1c(C)ccc(CNC)c1)=O

$$$$
50007789
Actelion Java MolfileCreator 2.0

  0  0  0  0  0  0              0 V3000
M  V30 BEGIN CTAB
M  V30 COUNTS 31 35 0 0 0
M  V30 BEGIN ATOM
M  V30 1 O 0.0 0.0 0.0 0
M  V30 2 C 1.2913 -0.7345 0.0 0
M  V30 3 N 1.2795 -2.2273 0.0 0
M  V30 4 C 2.5827 0.0236 0.0 0
M  V30 5 C -0.0355 -2.9618 0.0 0
M  V30 6 C 2.5708 1.5401 0.0 0
M  V30 7 C 3.874 -0.7108 0.0 0
M  V30 8 C -0.0473 -4.4546 0.0 0
M  V30 9 C 3.8622 2.2983 0.0 0
M  V30 10 C 5.1654 0.0473 0.0 0
M  V30 11 C 1.2439 -5.2009 0.0 0
M  V30 12 C -1.3624 -5.2009 0.0 0
M  V30 13 N 5.1536 1.5638 0.0 0
M  V30 14 C 1.2321 -6.6937 0.0 0
M  V30 15 C -1.3742 -6.6937 0.0 0
M  V30 16 C 6.4449 2.322 0.0 0 CFG=2
M  V30 17 O 2.3339 -7.6889 0.0 0
M  V30 18 C -0.0829 -7.4283 0.0 0
M  V30 19 C 6.4331 3.8385 0.0 0
M  V30 20 C 7.7363 1.5875 0.0 0
M  V30 21 C 1.706 -9.0513 0.0 0
M  V30 22 O 0.2132 -8.8855 0.0 0
M  V30 23 C 7.7244 4.5967 0.0 0
M  V30 24 C 5.118 4.5967 0.0 0
M  V30 25 C 7.7126 6.1132 0.0 0
M  V30 26 C 9.0158 3.8622 0.0 0
M  V30 27 C 5.1062 6.1132 0.0 0
M  V30 28 C 6.3975 6.8833 0.0 0
M  V30 29 C 9.004 6.8833 0.0 0
M  V30 30 C 10.3072 4.6204 0.0 0
M  V30 31 C 10.2953 6.1369 0.0 0
M  V30 END ATOM
M  V30 BEGIN BOND
M  V30 1 2 1 2
M  V30 2 1 2 3
M  V30 3 1 2 4
M  V30 4 1 3 5
M  V30 5 1 4 6
M  V30 6 1 4 7
M  V30 7 1 5 8
M  V30 8 1 6 9
M  V30 9 1 7 10
M  V30 10 2 8 11
M  V30 11 1 8 12
M  V30 12 1 9 13
M  V30 13 1 11 14
M  V30 14 2 12 15
M  V30 15 1 16 13 CFG=3
M  V30 16 1 14 17
M  V30 17 2 14 18
M  V30 18 1 16 19
M  V30 19 1 16 20
M  V30 20 1 17 21
M  V30 21 1 18 22
M  V30 22 1 19 23
M  V30 23 2 19 24
M  V30 24 1 23 25
M  V30 25 2 23 26
M  V30 26 1 24 27
M  V30 27 1 25 28
M  V30 28 2 25 29
M  V30 29 1 26 30
M  V30 30 1 29 31
M  V30 31 1 10 13
M  V30 32 1 15 18
M  V30 33 1 21 22
M  V30 34 2 27 28
M  V30 35 2 30 31
M  V30 END BOND
M  V30 BEGIN COLLECTION
M  V30 MDLV30/STERAC1 ATOMS=(1 16)
M  V30 END COLLECTION
M  V30 END CTAB
M  END
>  <Ligand InChI>
InChI=1S/C26H28N2O3/c1-18(22-8-4-6-20-5-2-3-7-23(20)22)28-13-11-21(12-14-28)26(29)27-16-19-9-10-24-25(15-19)31-17-30-24/h2-10,15,18,21H,11-14,16-17H2,1H3,(H,27,29)/t18-/m1/s1

>  <Ligand InChI Key>
IVXBCFLWMPMSAP-GOSISDBHSA-N

>  <BindingDB MonomerID>
50007789

>  <Target Name Assigned by Curator or DataSource>
Papain-like protease (PLpro)

>  <Target Source Organism According to Curator or DataSource>


>  <IC50 (nM)>
320

>  <PMID>
32852058

>  <Ligand HET ID in PDB>
GRM

>  <PDB ID(s) for Ligand-Target Complex>
3MJ5

>  <PubChem CID>
46174170

>  <PubChem SID>
103921058

>  <ChEMBL ID of Ligand>
CHEMBL1173044

>  <DrugBank ID of Ligand>


>  <ZINC ID of Ligand>
ZINC28757865

>  <PDB ID(s) of Target Chain>
1Q2W,1QZ8,1UJ1,1UK2,1UK3,1UK4,1UW7,1WOF,1Z1I,2A5A,2A5I,2A5K,2ACF,2AHM,2ALV,2AMD,2AMQ,2BX3,2BX4,2C3S,2D2D,2DUC,2FAV,2FE8,2FYG,2G9T,2GA6,2GDT,2GRI,2GT7,2GT8,2GTB,2GX4,2GZ7,2GZ8,2GZ9,2H2Z,2HOB,2HSX,2IDY,2JZF,2K7X,2K87,2KAF,2LIZ,2OP9,2RNK,2V6N,2VJ1,2XYQ,2XYR,2XYV,2Z3C,2Z3D,2Z3E,2Z94,2Z9G,2Z9J,2Z9K,2Z9L,2ZU4,2ZU5,3D62,3E91,3E9S,3EA7,3EA8,3EBN,3IWM,3M3V,3MJ5,3R24,3SN8,3SNA,3SNB,3SNC,3SND,3SNE,3SZN,3TIT,3TIU,3TNS,3TNT,3V3M,3VB3,3VB4,3VB5,3VB6,3VB7,4MDS,4MM3,4OVZ,4OW0,5C8S,5C8T,5C8U,5F22,5N19,5N5O,5NFY,5TL6,5TL7,5Y3E,5Y3Q,6LNQ,6LNY,6LO0,6NUR,6NUS,6W2A,6W79,6WCO,6XHL,6XHN,6XHO,6XMK,6XOA,7AKU,7JOY

>  <Smiles>
CC(c1cccc2ccccc12)N(CC1)CCC1C(NCc(cc1)cc2c1OCO2)=O

$$$$
154574
Actelion Java MolfileCreator 2.0

  0  0  0  0  0  0              0 V3000
M  V30 BEGIN CTAB
M  V30 COUNTS 31 35 0 0 0
M  V30 BEGIN ATOM
M  V30 1 O 0.0 0.0 0.0 0
M  V30 2 C -0.0118 -1.4937 0.0 0
M  V30 3 N 1.2803 -2.2406 0.0 0
M  V30 4 C -1.3277 -2.2406 0.0 0
M  V30 5 C 2.5725 -1.4818 0.0 0
M  V30 6 C -1.3396 -3.7343 0.0 0
M  V30 7 C -2.6436 -1.4818 0.0 0
M  V30 8 C 3.8647 -2.2287 0.0 0
M  V30 9 C -2.6555 -4.4693 0.0 0
M  V30 10 C -3.9595 -2.2287 0.0 0
M  V30 11 C 3.8528 -3.7224 0.0 0
M  V30 12 C 5.1569 -1.47 0.0 0
M  V30 13 N -3.9714 -3.7106 0.0 0
M  V30 14 C 5.1451 -4.4575 0.0 0
M  V30 15 C 6.4491 -2.2168 0.0 0
M  V30 16 C -5.2873 -4.4456 0.0 0 CFG=2
M  V30 17 O 5.4414 -5.9156 0.0 0
M  V30 18 C 6.4373 -3.6987 0.0 0
M  V30 19 C -5.2992 -5.9393 0.0 0
M  V30 20 C -6.6032 -3.6869 0.0 0
M  V30 21 C 6.9233 -6.0579 0.0 0
M  V30 22 O 7.5398 -4.6946 0.0 0
M  V30 23 C -6.6151 -6.6862 0.0 0
M  V30 24 C -4.007 -6.6862 0.0 0
M  V30 25 C -6.6269 -8.18 0.0 0
M  V30 26 C -7.931 -5.9156 0.0 0
M  V30 27 C -4.0188 -8.18 0.0 0
M  V30 28 C -5.3347 -8.915 0.0 0
M  V30 29 C -7.9428 -8.915 0.0 0
M  V30 30 C -9.2469 -6.6625 0.0 0
M  V30 31 C -9.2588 -8.1562 0.0 0
M  V30 END ATOM
M  V30 BEGIN BOND
M  V30 1 2 1 2
M  V30 2 1 2 3
M  V30 3 1 2 4
M  V30 4 1 3 5
M  V30 5 1 4 6
M  V30 6 1 4 7
M  V30 7 1 5 8
M  V30 8 1 6 9
M  V30 9 1 7 10
M  V30 10 2 8 11
M  V30 11 1 8 12
M  V30 12 1 9 13
M  V30 13 1 11 14
M  V30 14 2 12 15
M  V30 15 1 16 13 CFG=3
M  V30 16 1 14 17
M  V30 17 2 14 18
M  V30 18 1 16 19
M  V30 19 1 16 20
M  V30 20 1 17 21
M  V30 21 1 18 22
M  V30 22 1 19 23
M  V30 23 2 19 24
M  V30 24 1 23 25
M  V30 25 2 23 26
M  V30 26 1 24 27
M  V30 27 1 25 28
M  V30 28 2 25 29
M  V30 29 1 26 30
M  V30 30 1 29 31
M  V30 31 1 10 13
M  V30 32 1 15 18
M  V30 33 1 21 22
M  V30 34 2 27 28
M  V30 35 2 30 31
M  V30 END BOND
M  V30 BEGIN COLLECTION
M  V30 MDLV30/STERAC1 ATOMS=(1 16)
M  V30 END COLLECTION
M  V30 END CTAB
M  END
>  <Ligand InChI>
InChI=1S/C26H28N2O3/c1-18(22-8-4-6-20-5-2-3-7-23(20)22)28-13-11-21(12-14-28)26(29)27-16-19-9-10-24-25(15-19)31-17-30-24/h2-10,15,18,21H,11-14,16-17H2,1H3,(H,27,29)/t18-/m0/s1

>  <Ligand InChI Key>
IVXBCFLWMPMSAP-SFHVURJKSA-N

>  <BindingDB MonomerID>
154574

>  <Target Name Assigned by Curator or DataSource>
Papain-like protease (PLpro)

>  <Target Source Organism According to Curator or DataSource>


>  <IC50 (nM)>
560

>  <PMID>
32852058

>  <Ligand HET ID in PDB>


>  <PDB ID(s) for Ligand-Target Complex>


>  <PubChem CID>
46178558

>  <PubChem SID>
253651676

>  <ChEMBL ID of Ligand>


>  <DrugBank ID of Ligand>


>  <ZINC ID of Ligand>


>  <PDB ID(s) of Target Chain>
1Q2W,1QZ8,1UJ1,1UK2,1UK3,1UK4,1UW7,1WOF,1Z1I,2A5A,2A5I,2A5K,2ACF,2AHM,2ALV,2AMD,2AMQ,2BX3,2BX4,2C3S,2D2D,2DUC,2FAV,2FE8,2FYG,2G9T,2GA6,2GDT,2GRI,2GT7,2GT8,2GTB,2GX4,2GZ7,2GZ8,2GZ9,2H2Z,2HOB,2HSX,2IDY,2JZF,2K7X,2K87,2KAF,2LIZ,2OP9,2RNK,2V6N,2VJ1,2XYQ,2XYR,2XYV,2Z3C,2Z3D,2Z3E,2Z94,2Z9G,2Z9J,2Z9K,2Z9L,2ZU4,2ZU5,3D62,3E91,3E9S,3EA7,3EA8,3EBN,3IWM,3M3V,3MJ5,3R24,3SN8,3SNA,3SNB,3SNC,3SND,3SNE,3SZN,3TIT,3TIU,3TNS,3TNT,3V3M,3VB3,3VB4,3VB5,3VB6,3VB7,4MDS,4MM3,4OVZ,4OW0,5C8S,5C8T,5C8U,5F22,5N19,5N5O,5NFY,5TL6,5TL7,5Y3E,5Y3Q,6LNQ,6LNY,6LO0,6NUR,6NUS,6W2A,6W79,6WCO,6XHL,6XHN,6XHO,6XMK,6XOA,7AKU,7JOY

>  <Smiles>
CC(c1cccc2ccccc12)N(CC1)CCC1C(NCc(cc1)cc2c1OCO2)=O

$$$$
50007788
Actelion Java MolfileCreator 2.0

  0  0  0  0  0  0              0 V3000
M  V30 BEGIN CTAB
M  V30 COUNTS 32 35 0 0 0
M  V30 BEGIN ATOM
M  V30 1 O 0.0 0.0 0.0 0
M  V30 2 C -0.0119 -1.4884 0.0 0
M  V30 3 N 1.2741 -2.2267 0.0 0
M  V30 4 C -1.3217 -2.2267 0.0 0
M  V30 5 C 2.5601 -1.4646 0.0 0
M  V30 6 C -1.3336 -3.7152 0.0 0
M  V30 7 C -2.6435 -1.4646 0.0 0
M  V30 8 C 3.8462 -2.2029 0.0 0
M  V30 9 C -2.6435 -4.4535 0.0 0
M  V30 10 C -3.9652 -2.2029 0.0 0
M  V30 11 C 5.1322 -1.4408 0.0 0
M  V30 12 C 3.8343 -3.6914 0.0 0
M  V30 13 N -3.9652 -3.6914 0.0 0
M  V30 14 C 6.4182 -2.1672 0.0 0
M  V30 15 C 5.1203 -4.4296 0.0 0
M  V30 16 C -5.2751 -4.4415 0.0 0 CFG=2
M  V30 17 N 7.7043 -1.3932 0.0 0
M  V30 18 C 6.4063 -3.6556 0.0 0
M  V30 19 C -5.2751 -5.93 0.0 0
M  V30 20 C -6.5969 -3.6794 0.0 0
M  V30 21 C 9.0022 -2.1314 0.0 0
M  V30 22 C -6.5849 -6.6683 0.0 0
M  V30 23 C -3.9771 -6.6564 0.0 0
M  V30 24 O 10.2883 -1.3574 0.0 0
M  V30 25 C 9.0022 -3.6199 0.0 0
M  V30 26 C -6.5969 -8.1687 0.0 0
M  V30 27 C -7.8948 -5.9062 0.0 0
M  V30 28 C -3.9771 -8.1568 0.0 0
M  V30 29 C -5.3108 -8.907 0.0 0
M  V30 30 C -7.9067 -8.9189 0.0 0
M  V30 31 C -9.2047 -6.6445 0.0 0
M  V30 32 C -9.2166 -8.1568 0.0 0
M  V30 END ATOM
M  V30 BEGIN BOND
M  V30 1 2 1 2
M  V30 2 1 2 3
M  V30 3 1 2 4
M  V30 4 1 3 5
M  V30 5 1 4 6
M  V30 6 1 4 7
M  V30 7 1 5 8
M  V30 8 1 6 9
M  V30 9 1 7 10
M  V30 10 2 8 11
M  V30 11 1 8 12
M  V30 12 1 9 13
M  V30 13 1 11 14
M  V30 14 2 12 15
M  V30 15 1 16 13 CFG=3
M  V30 16 1 14 17
M  V30 17 2 14 18
M  V30 18 1 16 19
M  V30 19 1 16 20
M  V30 20 1 17 21
M  V30 21 1 19 22
M  V30 22 2 19 23
M  V30 23 2 21 24
M  V30 24 1 21 25
M  V30 25 1 22 26
M  V30 26 2 22 27
M  V30 27 1 23 28
M  V30 28 1 26 29
M  V30 29 2 26 30
M  V30 30 1 27 31
M  V30 31 1 30 32
M  V30 32 1 10 13
M  V30 33 1 15 18
M  V30 34 2 28 29
M  V30 35 2 31 32
M  V30 END BOND
M  V30 BEGIN COLLECTION
M  V30 MDLV30/STERAC1 ATOMS=(1 16)
M  V30 END COLLECTION
M  V30 END CTAB
M  END
>  <Ligand InChI>
InChI=1S/C27H31N3O2/c1-19(25-12-6-9-22-8-3-4-11-26(22)25)30-15-13-23(14-16-30)27(32)28-18-21-7-5-10-24(17-21)29-20(2)31/h3-12,17,19,23H,13-16,18H2,1-2H3,(H,28,32)(H,29,31)/t19-/m1/s1

>  <Ligand InChI Key>
YQRGVYYHRJBSOR-LJQANCHMSA-N

>  <BindingDB MonomerID>
50007788

>  <Target Name Assigned by Curator or DataSource>
Papain-like protease (PLpro)

>  <Target Source Organism According to Curator or DataSource>


>  <IC50 (nM)>
390

>  <PMID>
32852058

>  <Ligand HET ID in PDB>
GYX

>  <PDB ID(s) for Ligand-Target Complex>


>  <PubChem CID>
86276129

>  <PubChem SID>
103921057

>  <ChEMBL ID of Ligand>
CHEMBL3233809

>  <DrugBank ID of Ligand>


>  <ZINC ID of Ligand>
ZINC28758963

>  <PDB ID(s) of Target Chain>
1Q2W,1QZ8,1UJ1,1UK2,1UK3,1UK4,1UW7,1WOF,1Z1I,2A5A,2A5I,2A5K,2ACF,2AHM,2ALV,2AMD,2AMQ,2BX3,2BX4,2C3S,2D2D,2DUC,2FAV,2FE8,2FYG,2G9T,2GA6,2GDT,2GRI,2GT7,2GT8,2GTB,2GX4,2GZ7,2GZ8,2GZ9,2H2Z,2HOB,2HSX,2IDY,2JZF,2K7X,2K87,2KAF,2LIZ,2OP9,2RNK,2V6N,2VJ1,2XYQ,2XYR,2XYV,2Z3C,2Z3D,2Z3E,2Z94,2Z9G,2Z9J,2Z9K,2Z9L,2ZU4,2ZU5,3D62,3E91,3E9S,3EA7,3EA8,3EBN,3IWM,3M3V,3MJ5,3R24,3SN8,3SNA,3SNB,3SNC,3SND,3SNE,3SZN,3TIT,3TIU,3TNS,3TNT,3V3M,3VB3,3VB4,3VB5,3VB6,3VB7,4MDS,4MM3,4OVZ,4OW0,5C8S,5C8T,5C8U,5F22,5N19,5N5O,5NFY,5TL6,5TL7,5Y3E,5Y3Q,6LNQ,6LNY,6LO0,6NUR,6NUS,6W2A,6W79,6WCO,6XHL,6XHN,6XHO,6XMK,6XOA,7AKU,7JOY

>  <Smiles>
CC(c1cccc2ccccc12)N(CC1)CCC1C(NCc1cc(NC(C)=O)ccc1)=O

$$$$
50007791
Actelion Java MolfileCreator 2.0

  0  0  0  0  0  0              0 V3000
M  V30 BEGIN CTAB
M  V30 COUNTS 29 32 0 0 0
M  V30 BEGIN ATOM
M  V30 1 F 0.0 0.0 0.0 0
M  V30 2 C -1.3042 -0.7469 0.0 0
M  V30 3 C -2.6085 0.0 0.0 0
M  V30 4 C -1.3161 -2.2291 0.0 0
M  V30 5 C -3.9128 -0.7351 0.0 0
M  V30 6 C -2.6203 -2.9761 0.0 0
M  V30 7 C -3.9246 -2.2172 0.0 0
M  V30 8 C -5.217 0.0237 0.0 0
M  V30 9 N -6.5213 -0.7114 0.0 0
M  V30 10 C -7.8256 0.0474 0.0 0
M  V30 11 O -7.8374 1.5532 0.0 0
M  V30 12 C -9.1298 -0.6877 0.0 0
M  V30 13 C -9.1417 -2.1698 0.0 0
M  V30 14 C -10.446 0.0711 0.0 0
M  V30 15 C -10.446 -2.9049 0.0 0
M  V30 16 C -11.7621 -0.6639 0.0 0
M  V30 17 N -11.7621 -2.1461 0.0 0
M  V30 18 C -13.0663 -2.8931 0.0 0 CFG=2
M  V30 19 C -13.0663 -4.3752 0.0 0
M  V30 20 C -14.3825 -2.1342 0.0 0
M  V30 21 C -14.3706 -5.1103 0.0 0
M  V30 22 C -11.7739 -5.0985 0.0 0
M  V30 23 C -14.3825 -6.6043 0.0 0
M  V30 24 C -15.6749 -4.3515 0.0 0
M  V30 25 C -11.7739 -6.5924 0.0 0
M  V30 26 C -13.1019 -7.3394 0.0 0
M  V30 27 C -15.6867 -7.3513 0.0 0
M  V30 28 C -16.9792 -5.0866 0.0 0
M  V30 29 C -16.991 -6.5924 0.0 0
M  V30 END ATOM
M  V30 BEGIN BOND
M  V30 1 1 1 2
M  V30 2 2 2 3
M  V30 3 1 2 4
M  V30 4 1 3 5
M  V30 5 2 4 6
M  V30 6 2 5 7
M  V30 7 1 5 8
M  V30 8 1 8 9
M  V30 9 1 9 10
M  V30 10 2 10 11
M  V30 11 1 10 12
M  V30 12 1 12 13
M  V30 13 1 12 14
M  V30 14 1 13 15
M  V30 15 1 14 16
M  V30 16 1 15 17
M  V30 17 1 18 17 CFG=3
M  V30 18 1 18 19
M  V30 19 1 18 20
M  V30 20 1 19 21
M  V30 21 2 19 22
M  V30 22 1 21 23
M  V30 23 2 21 24
M  V30 24 1 22 25
M  V30 25 1 23 26
M  V30 26 2 23 27
M  V30 27 1 24 28
M  V30 28 1 27 29
M  V30 29 1 6 7
M  V30 30 1 16 17
M  V30 31 2 25 26
M  V30 32 2 28 29
M  V30 END BOND
M  V30 BEGIN COLLECTION
M  V30 MDLV30/STERAC1 ATOMS=(1 18)
M  V30 END COLLECTION
M  V30 END CTAB
M  END
>  <Ligand InChI>
InChI=1S/C25H27FN2O/c1-18(23-11-5-8-20-7-2-3-10-24(20)23)28-14-12-21(13-15-28)25(29)27-17-19-6-4-9-22(26)16-19/h2-11,16,18,21H,12-15,17H2,1H3,(H,27,29)/t18-/m1/s1

>  <Ligand InChI Key>
XJTWGMHOQKGBDO-GOSISDBHSA-N

>  <BindingDB MonomerID>
50007791

>  <Target Name Assigned by Curator or DataSource>
Papain-like protease (PLpro)

>  <Target Source Organism According to Curator or DataSource>


>  <IC50 (nM)>
150

>  <PMID>
32852058

>  <Ligand HET ID in PDB>
S88

>  <PDB ID(s) for Ligand-Target Complex>
4OW0

>  <PubChem CID>
73659186

>  <PubChem SID>
103921060

>  <ChEMBL ID of Ligand>
CHEMBL3233815

>  <DrugBank ID of Ligand>


>  <ZINC ID of Ligand>
ZINC28757943

>  <PDB ID(s) of Target Chain>
1Q2W,1QZ8,1UJ1,1UK2,1UK3,1UK4,1UW7,1WOF,1Z1I,2A5A,2A5I,2A5K,2ACF,2AHM,2ALV,2AMD,2AMQ,2BX3,2BX4,2C3S,2D2D,2DUC,2FAV,2FE8,2FYG,2G9T,2GA6,2GDT,2GRI,2GT7,2GT8,2GTB,2GX4,2GZ7,2GZ8,2GZ9,2H2Z,2HOB,2HSX,2IDY,2JZF,2K7X,2K87,2KAF,2LIZ,2OP9,2RNK,2V6N,2VJ1,2XYQ,2XYR,2XYV,2Z3C,2Z3D,2Z3E,2Z94,2Z9G,2Z9J,2Z9K,2Z9L,2ZU4,2ZU5,3D62,3E91,3E9S,3EA7,3EA8,3EBN,3IWM,3M3V,3MJ5,3R24,3SN8,3SNA,3SNB,3SNC,3SND,3SNE,3SZN,3TIT,3TIU,3TNS,3TNT,3V3M,3VB3,3VB4,3VB5,3VB6,3VB7,4MDS,4MM3,4OVZ,4OW0,5C8S,5C8T,5C8U,5F22,5N19,5N5O,5NFY,5TL6,5TL7,5Y3E,5Y3Q,6LNQ,6LNY,6LO0,6NUR,6NUS,6W2A,6W79,6WCO,6XHL,6XHN,6XHO,6XMK,6XOA,7AKU,7JOY

>  <Smiles>
CC(c1cccc2ccccc12)N(CC1)CCC1C(NCc1cccc(F)c1)=O

$$$$
50007790
Actelion Java MolfileCreator 2.0

  0  0  0  0  0  0              0 V3000
M  V30 BEGIN CTAB
M  V30 COUNTS 29 32 0 0 0
M  V30 BEGIN ATOM
M  V30 1 F 0.0 0.0 0.0 0
M  V30 2 C -1.3143 0.7578 0.0 0
M  V30 3 C -2.6169 0.0118 0.0 0
M  V30 4 C -1.3262 2.2616 0.0 0
M  V30 5 C -3.9194 0.7696 0.0 0
M  V30 6 C -2.6287 3.0076 0.0 0
M  V30 7 C -3.9313 2.2735 0.0 0
M  V30 8 C -5.2338 3.0313 0.0 0
M  V30 9 N -6.5363 2.2972 0.0 0
M  V30 10 C -7.8389 3.055 0.0 0
M  V30 11 O -7.8507 4.5588 0.0 0
M  V30 12 C -9.1414 2.3208 0.0 0
M  V30 13 C -9.1533 0.8407 0.0 0
M  V30 14 C -10.4558 3.0787 0.0 0
M  V30 15 C -10.4558 0.1065 0.0 0
M  V30 16 C -11.7702 2.3445 0.0 0
M  V30 17 N -11.7702 0.8644 0.0 0
M  V30 18 C -13.0727 0.1184 0.0 0 CFG=2
M  V30 19 C -13.0727 -1.3617 0.0 0
M  V30 20 C -14.3871 0.8762 0.0 0
M  V30 21 C -14.3753 -2.0959 0.0 0
M  V30 22 C -11.782 -2.084 0.0 0
M  V30 23 C -14.3871 -3.5879 0.0 0
M  V30 24 C -15.6778 -1.338 0.0 0
M  V30 25 C -11.782 -3.576 0.0 0
M  V30 26 C -13.1083 -4.322 0.0 0
M  V30 27 C -15.6897 -4.3339 0.0 0
M  V30 28 C -16.9804 -2.0722 0.0 0
M  V30 29 C -16.9922 -3.576 0.0 0
M  V30 END ATOM
M  V30 BEGIN BOND
M  V30 1 1 1 2
M  V30 2 2 2 3
M  V30 3 1 2 4
M  V30 4 1 3 5
M  V30 5 2 4 6
M  V30 6 2 5 7
M  V30 7 1 7 8
M  V30 8 1 8 9
M  V30 9 1 9 10
M  V30 10 2 10 11
M  V30 11 1 10 12
M  V30 12 1 12 13
M  V30 13 1 12 14
M  V30 14 1 13 15
M  V30 15 1 14 16
M  V30 16 1 15 17
M  V30 17 1 18 17 CFG=3
M  V30 18 1 18 19
M  V30 19 1 18 20
M  V30 20 1 19 21
M  V30 21 2 19 22
M  V30 22 1 21 23
M  V30 23 2 21 24
M  V30 24 1 22 25
M  V30 25 1 23 26
M  V30 26 2 23 27
M  V30 27 1 24 28
M  V30 28 1 27 29
M  V30 29 1 6 7
M  V30 30 1 16 17
M  V30 31 2 25 26
M  V30 32 2 28 29
M  V30 END BOND
M  V30 BEGIN COLLECTION
M  V30 MDLV30/STERAC1 ATOMS=(1 18)
M  V30 END COLLECTION
M  V30 END CTAB
M  END
>  <Ligand InChI>
InChI=1S/C25H27FN2O/c1-18(23-8-4-6-20-5-2-3-7-24(20)23)28-15-13-21(14-16-28)25(29)27-17-19-9-11-22(26)12-10-19/h2-12,18,21H,13-17H2,1H3,(H,27,29)/t18-/m1/s1

>  <Ligand InChI Key>
VTAUBQMDNJOEAK-GOSISDBHSA-N

>  <BindingDB MonomerID>
50007790

>  <Target Name Assigned by Curator or DataSource>
Papain-like protease (PLpro)

>  <Target Source Organism According to Curator or DataSource>


>  <IC50 (nM)>
490

>  <PMID>
32852058

>  <Ligand HET ID in PDB>
P85

>  <PDB ID(s) for Ligand-Target Complex>
4OVZ

>  <PubChem CID>
73659185

>  <PubChem SID>
103921059

>  <ChEMBL ID of Ligand>
CHEMBL3233814

>  <DrugBank ID of Ligand>


>  <ZINC ID of Ligand>
ZINC27892204

>  <PDB ID(s) of Target Chain>
1Q2W,1QZ8,1UJ1,1UK2,1UK3,1UK4,1UW7,1WOF,1Z1I,2A5A,2A5I,2A5K,2ACF,2AHM,2ALV,2AMD,2AMQ,2BX3,2BX4,2C3S,2D2D,2DUC,2FAV,2FE8,2FYG,2G9T,2GA6,2GDT,2GRI,2GT7,2GT8,2GTB,2GX4,2GZ7,2GZ8,2GZ9,2H2Z,2HOB,2HSX,2IDY,2JZF,2K7X,2K87,2KAF,2LIZ,2OP9,2RNK,2V6N,2VJ1,2XYQ,2XYR,2XYV,2Z3C,2Z3D,2Z3E,2Z94,2Z9G,2Z9J,2Z9K,2Z9L,2ZU4,2ZU5,3D62,3E91,3E9S,3EA7,3EA8,3EBN,3IWM,3M3V,3MJ5,3R24,3SN8,3SNA,3SNB,3SNC,3SND,3SNE,3SZN,3TIT,3TIU,3TNS,3TNT,3V3M,3VB3,3VB4,3VB5,3VB6,3VB7,4MDS,4MM3,4OVZ,4OW0,5C8S,5C8T,5C8U,5F22,5N19,5N5O,5NFY,5TL6,5TL7,5Y3E,5Y3Q,6LNQ,6LNY,6LO0,6NUR,6NUS,6W2A,6W79,6WCO,6XHL,6XHN,6XHO,6XMK,6XOA,7AKU,7JOY

>  <Smiles>
CC(c1cccc2ccccc12)N(CC1)CCC1C(NCc(cc1)ccc1F)=O

$$$$
83922
Actelion Java MolfileCreator 2.0

  0  0  0  0  0  0              0 V3000
M  V30 BEGIN CTAB
M  V30 COUNTS 22 25 0 0 0
M  V30 BEGIN ATOM
M  V30 1 O 0.0 0.0 0.0 0
M  V30 2 C 1.2642 -0.7224 0.0 0
M  V30 3 C 1.2521 -2.1792 0.0 0
M  V30 4 C 2.5284 0.024 0.0 0
M  V30 5 C 2.5163 -2.9016 0.0 0
M  V30 6 C -0.0963 -2.9137 0.0 0
M  V30 7 O 2.5163 1.505 0.0 0
M  V30 8 C 3.7926 -0.6983 0.0 0
M  V30 9 C 3.7806 -2.1551 0.0 0
M  V30 10 C 2.5284 -4.4187 0.0 0
M  V30 11 C -0.1204 -4.4307 0.0 0
M  V30 12 C -1.4689 -2.0709 0.0 0
M  V30 13 C 5.1652 -0.2408 0.0 0
M  V30 14 O 5.1531 -2.5886 0.0 0
M  V30 15 C 1.1919 -5.1772 0.0 0
M  V30 16 C -1.505 -5.2254 0.0 0
M  V30 17 C -2.8776 -2.8294 0.0 0
M  V30 18 C 6.008 -1.4087 0.0 0
M  V30 19 C 5.6107 1.1678 0.0 0
M  V30 20 C -2.9016 -4.4187 0.0 0
M  V30 21 C -2.2515 -6.4896 0.0 0
M  V30 22 C -0.7826 -6.4776 0.0 0
M  V30 END ATOM
M  V30 BEGIN BOND
M  V30 1 2 1 2
M  V30 2 1 2 3
M  V30 3 1 2 4
M  V30 4 2 3 5
M  V30 5 1 3 6
M  V30 6 2 4 7
M  V30 7 1 4 8
M  V30 8 1 5 9
M  V30 9 1 5 10
M  V30 10 2 6 11
M  V30 11 1 6 12
M  V30 12 1 8 13
M  V30 13 1 9 14
M  V30 14 2 10 15
M  V30 15 1 11 16
M  V30 16 1 12 17
M  V30 17 2 13 18
M  V30 18 1 13 19
M  V30 19 1 16 20
M  V30 20 1 16 21
M  V30 21 1 16 22
M  V30 22 2 8 9
M  V30 23 1 11 15
M  V30 24 1 14 18
M  V30 25 1 17 20
M  V30 END BOND
M  V30 END CTAB
M  END
>  <Ligand InChI>
InChI=1S/C19H18O3/c1-10-9-22-18-12-6-7-13-11(5-4-8-19(13,2)3)15(12)17(21)16(20)14(10)18/h6-7,9H,4-5,8H2,1-3H3

>  <Ligand InChI Key>
HYXITZLLTYIPOF-UHFFFAOYSA-N

>  <BindingDB MonomerID>
83922

>  <Target Name Assigned by Curator or DataSource>
Papain-like protease (PLpro)

>  <Target Source Organism According to Curator or DataSource>


>  <IC50 (nM)>
800

>  <PMID>
32852058

>  <Ligand HET ID in PDB>


>  <PDB ID(s) for Ligand-Target Complex>


>  <PubChem CID>
164676

>  <PubChem SID>
252659093

>  <ChEMBL ID of Ligand>


>  <DrugBank ID of Ligand>


>  <ZINC ID of Ligand>
ZINC01650576

>  <PDB ID(s) of Target Chain>
1Q2W,1QZ8,1UJ1,1UK2,1UK3,1UK4,1UW7,1WOF,1Z1I,2A5A,2A5I,2A5K,2ACF,2AHM,2ALV,2AMD,2AMQ,2BX3,2BX4,2C3S,2D2D,2DUC,2FAV,2FE8,2FYG,2G9T,2GA6,2GDT,2GRI,2GT7,2GT8,2GTB,2GX4,2GZ7,2GZ8,2GZ9,2H2Z,2HOB,2HSX,2IDY,2JZF,2K7X,2K87,2KAF,2LIZ,2OP9,2RNK,2V6N,2VJ1,2XYQ,2XYR,2XYV,2Z3C,2Z3D,2Z3E,2Z94,2Z9G,2Z9J,2Z9K,2Z9L,2ZU4,2ZU5,3D62,3E91,3E9S,3EA7,3EA8,3EBN,3IWM,3M3V,3MJ5,3R24,3SN8,3SNA,3SNB,3SNC,3SND,3SNE,3SZN,3TIT,3TIU,3TNS,3TNT,3V3M,3VB3,3VB4,3VB5,3VB6,3VB7,4MDS,4MM3,4OVZ,4OW0,5C8S,5C8T,5C8U,5F22,5N19,5N5O,5NFY,5TL6,5TL7,5Y3E,5Y3Q,6LNQ,6LNY,6LO0,6NUR,6NUS,6W2A,6W79,6WCO,6XHL,6XHN,6XHO,6XMK,6XOA,7AKU,7JOY

>  <Smiles>
CC(C)(CCC1)c(cc2)c1c(C1=O)c2-c(occ2C)c2C1=O

$$$$
50478445
Actelion Java MolfileCreator 2.0

  0  0  0  0  0  0              0 V3000
M  V30 BEGIN CTAB
M  V30 COUNTS 24 25 0 0 0
M  V30 BEGIN ATOM
M  V30 1 O 0.0 0.0 0.0 0
M  V30 2 C -0.0119 -1.4909 0.0 0
M  V30 3 C 1.2762 -2.2305 0.0 0
M  V30 4 C -1.324 -2.2305 0.0 0
M  V30 5 C 2.5645 -1.4671 0.0 0
M  V30 6 C -2.636 -1.4671 0.0 0
M  V30 7 C 3.8527 -2.2066 0.0 0
M  V30 8 C -3.9481 -2.2066 0.0 0
M  V30 9 C 5.1409 -1.4432 0.0 0
M  V30 10 C -5.2602 -1.4432 0.0 0
M  V30 11 C -3.96 -3.7095 0.0 0
M  V30 12 C 6.4291 -2.1828 0.0 0
M  V30 13 C -6.5723 -2.1828 0.0 0
M  V30 14 C -5.284 -4.4491 0.0 0
M  V30 15 C 7.7054 -1.4074 0.0 0
M  V30 16 C 6.4172 -3.6738 0.0 0
M  V30 17 O -7.8843 -1.4194 0.0 0
M  V30 18 C -6.5842 -3.6738 0.0 0
M  V30 19 C 8.9936 -2.1351 0.0 0
M  V30 20 C 7.7054 -4.4133 0.0 0
M  V30 21 O -7.8963 -4.4133 0.0 0
M  V30 22 O 10.2819 -1.3597 0.0 0
M  V30 23 C 8.9936 -3.638 0.0 0
M  V30 24 O 10.2938 -4.3775 0.0 0
M  V30 END ATOM
M  V30 BEGIN BOND
M  V30 1 2 1 2
M  V30 2 1 2 3
M  V30 3 1 2 4
M  V30 4 2 3 5
M  V30 5 1 4 6
M  V30 6 1 5 7
M  V30 7 1 6 8
M  V30 8 1 7 9
M  V30 9 2 8 10
M  V30 10 1 8 11
M  V30 11 1 9 12
M  V30 12 1 10 13
M  V30 13 2 11 14
M  V30 14 2 12 15
M  V30 15 1 12 16
M  V30 16 1 13 17
M  V30 17 2 13 18
M  V30 18 1 15 19
M  V30 19 2 16 20
M  V30 20 1 18 21
M  V30 21 1 19 22
M  V30 22 2 19 23
M  V30 23 1 23 24
M  V30 24 1 14 18
M  V30 25 1 20 23
M  V30 END BOND
M  V30 END CTAB
M  END
>  <Ligand InChI>
InChI=1S/C19H20O5/c20-15(8-5-14-7-10-17(22)19(24)12-14)4-2-1-3-13-6-9-16(21)18(23)11-13/h2,4,6-7,9-12,21-24H,1,3,5,8H2/b4-2+

>  <Ligand InChI Key>
VWHYFMQKJYFLCC-DUXPYHPUSA-N

>  <BindingDB MonomerID>
50478445

>  <Target Name Assigned by Curator or DataSource>
Papain-like protease (PLpro)

>  <Target Source Organism According to Curator or DataSource>


>  <IC50 (nM)>
4100

>  <PMID>
32852058

>  <Ligand HET ID in PDB>


>  <PDB ID(s) for Ligand-Target Complex>


>  <PubChem CID>
637394

>  <PubChem SID>
433945710

>  <ChEMBL ID of Ligand>


>  <DrugBank ID of Ligand>


>  <ZINC ID of Ligand>


>  <PDB ID(s) of Target Chain>
1Q2W,1QZ8,1UJ1,1UK2,1UK3,1UK4,1UW7,1WOF,1Z1I,2A5A,2A5I,2A5K,2ACF,2AHM,2ALV,2AMD,2AMQ,2BX3,2BX4,2C3S,2D2D,2DUC,2FAV,2FE8,2FYG,2G9T,2GA6,2GDT,2GRI,2GT7,2GT8,2GTB,2GX4,2GZ7,2GZ8,2GZ9,2H2Z,2HOB,2HSX,2IDY,2JZF,2K7X,2K87,2KAF,2LIZ,2OP9,2RNK,2V6N,2VJ1,2XYQ,2XYR,2XYV,2Z3C,2Z3D,2Z3E,2Z94,2Z9G,2Z9J,2Z9K,2Z9L,2ZU4,2ZU5,3D62,3E91,3E9S,3EA7,3EA8,3EBN,3IWM,3M3V,3MJ5,3R24,3SN8,3SNA,3SNB,3SNC,3SND,3SNE,3SZN,3TIT,3TIU,3TNS,3TNT,3V3M,3VB3,3VB4,3VB5,3VB6,3VB7,4MDS,4MM3,4OVZ,4OW0,5C8S,5C8T,5C8U,5F22,5N19,5N5O,5NFY,5TL6,5TL7,5Y3E,5Y3Q,6LNQ,6LNY,6LO0,6NUR,6NUS,6W2A,6W79,6WCO,6XHL,6XHN,6XHO,6XMK,6XOA,7AKU,7JOY

>  <Smiles>
Oc(ccc(CC/C=C/C(CCc(cc1)cc(O)c1O)=O)c1)c1O

$$$$
50494125
Actelion Java MolfileCreator 2.0

  0  0  0  0  0  0              0 V3000
M  V30 BEGIN CTAB
M  V30 COUNTS 50 53 0 0 0
M  V30 BEGIN ATOM
M  V30 1 O 0.0 0.0 0.0 0
M  V30 2 C 1.2531 -0.792 0.0 0
M  V30 3 N 2.6363 -0.2246 0.0 0
M  V30 4 C 1.3358 -2.2816 0.0 0 CFG=2
M  V30 5 C 3.582 -1.3713 0.0 0
M  V30 6 C 2.7663 -2.6481 0.0 0
M  V30 7 C 0.1655 -3.2274 0.0 0
M  V30 8 C 0.1536 -4.7169 0.0 0 CFG=1
M  V30 9 N -1.1585 -5.4499 0.0 0
M  V30 10 C 1.4422 -5.4499 0.0 0
M  V30 11 C -2.4708 -4.6933 0.0 0
M  V30 12 O 1.4304 -6.9395 0.0 0
M  V30 13 C 2.7308 -4.6933 0.0 0
M  V30 14 O -2.4826 -3.1801 0.0 0
M  V30 15 C -3.783 -5.4263 0.0 0 CFG=2
M  V30 16 O 2.719 -3.1801 0.0 0
M  V30 17 N 4.0194 -5.4263 0.0 0
M  V30 18 N -5.0953 -4.6697 0.0 0
M  V30 19 C -3.7948 -6.9158 0.0 0
M  V30 20 C 5.308 -4.6697 0.0 0
M  V30 21 C -6.4075 -5.4026 0.0 0
M  V30 22 C -2.5062 -7.6488 0.0 0
M  V30 23 C 6.5966 -5.4026 0.0 0
M  V30 24 C 5.2962 -3.1564 0.0 0
M  V30 25 O -6.4193 -6.8922 0.0 0
M  V30 26 C -7.7197 -4.646 0.0 0 CFG=2
M  V30 27 C -2.518 -9.1384 0.0 0
M  V30 28 C -1.0758 -7.2469 0.0 0
M  V30 29 N -9.032 -5.379 0.0 0
M  V30 30 C -7.7316 -3.1328 0.0 0
M  V30 31 C -9.0438 -6.8686 0.0 0
M  V30 32 C -9.0438 -2.3762 0.0 0
M  V30 33 O -7.7552 -7.6015 0.0 0
M  V30 34 O -10.3561 -7.6015 0.0 0
M  V30 35 C -9.0556 -0.863 0.0 0
M  V30 36 C -10.3442 -3.1091 0.0 0
M  V30 37 C -11.6683 -6.8449 0.0 0
M  V30 38 C -10.3561 -0.0945 0.0 0
M  V30 39 C -7.7789 -0.1063 0.0 0
M  V30 40 C -11.6565 -2.3525 0.0 0
M  V30 41 C -12.9806 -7.5779 0.0 0
M  V30 42 C -11.6683 -0.8275 0.0 0
M  V30 43 C -10.3679 1.4068 0.0 0
M  V30 44 C -7.7907 1.4068 0.0 0
M  V30 45 C -14.2928 -6.8094 0.0 0
M  V30 46 C -12.9806 -9.0556 0.0 0
M  V30 47 C -9.0911 2.1634 0.0 0
M  V30 48 C -15.605 -7.5424 0.0 0
M  V30 49 C -14.281 -9.8004 0.0 0
M  V30 50 C -15.6169 -9.032 0.0 0
M  V30 END ATOM
M  V30 BEGIN BOND
M  V30 1 2 1 2
M  V30 2 1 2 3
M  V30 3 1 2 4
M  V30 4 1 3 5
M  V30 5 1 4 6
M  V30 6 1 4 7 CFG=3
M  V30 7 1 7 8
M  V30 8 1 8 9 CFG=3
M  V30 9 1 8 10
M  V30 10 1 9 11
M  V30 11 2 10 12
M  V30 12 1 10 13
M  V30 13 2 11 14
M  V30 14 1 11 15
M  V30 15 2 13 16
M  V30 16 1 13 17
M  V30 17 1 15 18 CFG=1
M  V30 18 1 15 19
M  V30 19 1 17 20
M  V30 20 1 18 21
M  V30 21 1 19 22
M  V30 22 1 20 23
M  V30 23 1 20 24
M  V30 24 2 21 25
M  V30 25 1 21 26
M  V30 26 1 22 27
M  V30 27 1 22 28
M  V30 28 1 26 29 CFG=3
M  V30 29 1 26 30
M  V30 30 1 29 31
M  V30 31 1 30 32
M  V30 32 2 31 33
M  V30 33 1 31 34
M  V30 34 1 32 35
M  V30 35 2 32 36
M  V30 36 1 34 37
M  V30 37 1 35 38
M  V30 38 2 35 39
M  V30 39 1 36 40
M  V30 40 1 37 41
M  V30 41 1 38 42
M  V30 42 2 38 43
M  V30 43 1 39 44
M  V30 44 2 41 45
M  V30 45 1 41 46
M  V30 46 1 43 47
M  V30 47 1 45 48
M  V30 48 2 46 49
M  V30 49 2 48 50
M  V30 50 1 5 6
M  V30 51 2 40 42
M  V30 52 2 44 47
M  V30 53 1 49 50
M  V30 END BOND
M  V30 BEGIN COLLECTION
M  V30 MDLV30/STERAC1 ATOMS=(4 4 8 15 26)
M  V30 END COLLECTION
M  V30 END CTAB
M  END
>  <Ligand InChI>
InChI=1S/C38H47N5O7/c1-23(2)19-31(35(46)41-30(21-28-17-18-39-34(28)45)33(44)37(48)40-24(3)4)42-36(47)32(43-38(49)50-22-25-11-6-5-7-12-25)20-27-15-10-14-26-13-8-9-16-29(26)27/h5-16,23-24,28,30-32H,17-22H2,1-4H3,(H,39,45)(H,40,48)(H,41,46)(H,42,47)(H,43,49)/t28-,30-,31-,32-/m0/s1

>  <Ligand InChI Key>
GCYUVLWAEVVUEN-MCEBTLFFSA-N

>  <BindingDB MonomerID>
50494125

>  <Target Name Assigned by Curator or DataSource>
3C-like proteinase (3CL-PRO)

>  <Target Source Organism According to Curator or DataSource>
Human SARS coronavirus

>  <IC50 (nM)>
610

>  <PMID>
24125888

>  <Ligand HET ID in PDB>


>  <PDB ID(s) for Ligand-Target Complex>


>  <PubChem CID>


>  <PubChem SID>


>  <ChEMBL ID of Ligand>


>  <DrugBank ID of Ligand>


>  <ZINC ID of Ligand>


>  <PDB ID(s) of Target Chain>
1Q2W,1QZ8,1UJ1,1UK2,1UK3,1UK4,1UW7,1WOF,1Z1I,2A5A,2A5I,2A5K,2ACF,2AHM,2ALV,2AMD,2AMQ,2BX3,2BX4,2C3S,2D2D,2DUC,2FAV,2FE8,2FYG,2G9T,2GA6,2GDT,2GRI,2GT7,2GT8,2GTB,2GX4,2GZ7,2GZ8,2GZ9,2H2Z,2HOB,2HSX,2IDY,2JZF,2K7X,2K87,2KAF,2LIZ,2OP9,2OZK,2RNK,2V6N,2VJ1,2XYQ,2XYR,2XYV,2Z3C,2Z3D,2Z3E,2Z94,2Z9G,2Z9J,2Z9K,2Z9L,2ZU4,2ZU5,3D62,3E91,3E9S,3EA7,3EA8,3EBN,3IWM,3M3V,3MJ5,3R24,3SN8,3SNA,3SNB,3SNC,3SND,3SNE,3SZN,3TIT,3TIU,3TNS,3TNT,3V3M,3VB3,3VB4,3VB5,3VB6,3VB7,4MDS,4MM3,4OVZ,4OW0,5C8S,5C8T,5C8U,5F22,5N19,5N5O,5NFY,5TL6,5TL7,5Y3E,5Y3Q,6JYT,6LNQ,6LNY,6LO0,6NUR,6NUS,6W2A,6W79,6WCO,6XHL,6XHN,6XHO,6XMK,6XOA,7C2K

>  <Smiles>
CC(C)C[C@H](C(N[C@H](C[C@@H](CCN1)C1=O)C(C(NC(C)C)=O)=O)=O)NC([C@@H](Cc1cccc2ccccc12)NC(OCc1ccccc1)=O)=O

$$$$
50273967
Actelion Java MolfileCreator 2.0

  0  0  0  0  0  0              0 V3000
M  V30 BEGIN CTAB
M  V30 COUNTS 44 47 0 0 0
M  V30 BEGIN ATOM
M  V30 1 O 0.0 0.0 0.0 0
M  V30 2 C 1.1704 -0.9103 0.0 0
M  V30 3 N 2.601 -0.4847 0.0 0
M  V30 4 C 1.1113 -2.4 0.0 0 CFG=2
M  V30 5 C 3.4286 -1.7143 0.0 0
M  V30 6 C 2.5064 -2.8966 0.0 0
M  V30 7 C -0.1418 -3.2276 0.0 0
M  V30 8 C -0.1536 -4.7173 0.0 0 CFG=1
M  V30 9 N -1.466 -5.4504 0.0 0
M  V30 10 C 1.135 -5.4504 0.0 0
M  V30 11 C -2.7784 -4.6937 0.0 0
M  V30 12 O 1.1231 -6.9401 0.0 0
M  V30 13 O -2.7902 -3.1804 0.0 0
M  V30 14 C -4.0907 -5.4267 0.0 0 CFG=2
M  V30 15 N -5.4031 -4.6701 0.0 0
M  V30 16 C -4.1025 -6.9164 0.0 0
M  V30 17 C -6.7154 -5.4031 0.0 0
M  V30 18 C -2.8138 -7.6495 0.0 0
M  V30 19 O -6.7273 -6.8928 0.0 0
M  V30 20 C -8.0278 -4.6464 0.0 0 CFG=2
M  V30 21 C -2.8257 -9.1392 0.0 0
M  V30 22 C -1.3832 -7.2475 0.0 0
M  V30 23 N -9.3402 -5.3794 0.0 0
M  V30 24 C -8.0396 -3.1331 0.0 0
M  V30 25 C -9.352 -6.8691 0.0 0
M  V30 26 C -9.352 -2.3764 0.0 0
M  V30 27 O -8.0633 -7.6022 0.0 0
M  V30 28 O -10.6643 -7.6022 0.0 0
M  V30 29 C -9.352 -0.8749 0.0 0
M  V30 30 C -10.6525 -3.1094 0.0 0
M  V30 31 C -11.9767 -6.8455 0.0 0
M  V30 32 C -10.6643 -0.1064 0.0 0
M  V30 33 C -8.0633 -0.1182 0.0 0
M  V30 34 C -11.9649 -2.3527 0.0 0
M  V30 35 C -13.2891 -7.5785 0.0 0
M  V30 36 C -11.9767 -0.8394 0.0 0
M  V30 37 C -10.6762 1.3951 0.0 0
M  V30 38 C -8.0751 1.3951 0.0 0
M  V30 39 C -14.5896 -6.81 0.0 0
M  V30 40 C -13.2891 -9.0564 0.0 0
M  V30 41 C -9.3993 2.1517 0.0 0
M  V30 42 C -15.902 -7.5431 0.0 0
M  V30 43 C -14.5896 -9.8013 0.0 0
M  V30 44 C -15.9138 -9.0328 0.0 0
M  V30 END ATOM
M  V30 BEGIN BOND
M  V30 1 2 1 2
M  V30 2 1 2 3
M  V30 3 1 2 4
M  V30 4 1 3 5
M  V30 5 1 4 6
M  V30 6 1 4 7 CFG=3
M  V30 7 1 7 8
M  V30 8 1 8 9 CFG=3
M  V30 9 1 8 10
M  V30 10 1 9 11
M  V30 11 2 10 12
M  V30 12 2 11 13
M  V30 13 1 11 14
M  V30 14 1 14 15 CFG=1
M  V30 15 1 14 16
M  V30 16 1 15 17
M  V30 17 1 16 18
M  V30 18 2 17 19
M  V30 19 1 17 20
M  V30 20 1 18 21
M  V30 21 1 18 22
M  V30 22 1 20 23 CFG=3
M  V30 23 1 20 24
M  V30 24 1 23 25
M  V30 25 1 24 26
M  V30 26 2 25 27
M  V30 27 1 25 28
M  V30 28 1 26 29
M  V30 29 2 26 30
M  V30 30 1 28 31
M  V30 31 1 29 32
M  V30 32 2 29 33
M  V30 33 1 30 34
M  V30 34 1 31 35
M  V30 35 1 32 36
M  V30 36 2 32 37
M  V30 37 1 33 38
M  V30 38 2 35 39
M  V30 39 1 35 40
M  V30 40 1 37 41
M  V30 41 1 39 42
M  V30 42 2 40 43
M  V30 43 2 42 44
M  V30 44 1 5 6
M  V30 45 2 34 36
M  V30 46 2 38 41
M  V30 47 1 43 44
M  V30 END BOND
M  V30 BEGIN COLLECTION
M  V30 MDLV30/STERAC1 ATOMS=(4 4 8 14 20)
M  V30 END COLLECTION
M  V30 END CTAB
M  END
>  <Ligand InChI>
InChI=1S/C34H40N4O6/c1-22(2)17-29(32(41)36-27(20-39)18-26-15-16-35-31(26)40)37-33(42)30(38-34(43)44-21-23-9-4-3-5-10-23)19-25-13-8-12-24-11-6-7-14-28(24)25/h3-14,20,22,26-27,29-30H,15-19,21H2,1-2H3,(H,35,40)(H,36,41)(H,37,42)(H,38,43)/t26-,27-,29-,30-/m0/s1

>  <Ligand InChI Key>
UULYLRNRQOWCOR-ZHTHUIBPSA-N

>  <BindingDB MonomerID>
50273967

>  <Target Name Assigned by Curator or DataSource>
3C-like proteinase (3CL-PRO)

>  <Target Source Organism According to Curator or DataSource>
Human SARS coronavirus

>  <IC50 (nM)>
230

>  <PMID>
24125888

>  <Ligand HET ID in PDB>


>  <PDB ID(s) for Ligand-Target Complex>


>  <PubChem CID>
71544385

>  <PubChem SID>
405256731

>  <ChEMBL ID of Ligand>


>  <DrugBank ID of Ligand>


>  <ZINC ID of Ligand>


>  <PDB ID(s) of Target Chain>
1Q2W,1QZ8,1UJ1,1UK2,1UK3,1UK4,1UW7,1WOF,1Z1I,2A5A,2A5I,2A5K,2ACF,2AHM,2ALV,2AMD,2AMQ,2BX3,2BX4,2C3S,2D2D,2DUC,2FAV,2FE8,2FYG,2G9T,2GA6,2GDT,2GRI,2GT7,2GT8,2GTB,2GX4,2GZ7,2GZ8,2GZ9,2H2Z,2HOB,2HSX,2IDY,2JZF,2K7X,2K87,2KAF,2LIZ,2OP9,2OZK,2RNK,2V6N,2VJ1,2XYQ,2XYR,2XYV,2Z3C,2Z3D,2Z3E,2Z94,2Z9G,2Z9J,2Z9K,2Z9L,2ZU4,2ZU5,3D62,3E91,3E9S,3EA7,3EA8,3EBN,3IWM,3M3V,3MJ5,3R24,3SN8,3SNA,3SNB,3SNC,3SND,3SNE,3SZN,3TIT,3TIU,3TNS,3TNT,3V3M,3VB3,3VB4,3VB5,3VB6,3VB7,4MDS,4MM3,4OVZ,4OW0,5C8S,5C8T,5C8U,5F22,5N19,5N5O,5NFY,5TL6,5TL7,5Y3E,5Y3Q,6JYT,6LNQ,6LNY,6LO0,6NUR,6NUS,6W2A,6W79,6WCO,6XHL,6XHN,6XHO,6XMK,6XOA,7C2K

>  <Smiles>
CC(C)C[C@H](C(N[C@H](C[C@@H](CCN1)C1=O)C=O)=O)NC([C@@H](Cc1cccc2ccccc12)NC(OCc1ccccc1)=O)=O

$$$$
50480130
Actelion Java MolfileCreator 2.0

  0  0  0  0  0  0              0 V3000
M  V30 BEGIN CTAB
M  V30 COUNTS 44 50 0 0 0
M  V30 BEGIN ATOM
M  V30 1 Cl 0.0 0.0 0.0 0
M  V30 2 S 1.6228 8.0186 0.0 0
M  V30 3 C 2.5058 6.8015 0.0 0
M  V30 4 C 0.167 7.5533 0.0 0
M  V30 5 N 1.6108 5.5844 0.0 0
M  V30 6 C 3.9974 6.8254 0.0 0
M  V30 7 C 0.167 6.0498 0.0 0
M  V30 8 C -1.1455 8.3169 0.0 0
M  V30 9 C 4.7491 5.5367 0.0 0
M  V30 10 C 4.7252 8.1499 0.0 0
M  V30 11 C -1.1574 5.3099 0.0 0
M  V30 12 C -2.4581 7.5771 0.0 0
M  V30 13 C 6.2407 5.5605 0.0 0
M  V30 14 C 6.2168 8.1738 0.0 0
M  V30 15 C -2.4819 6.0736 0.0 0
M  V30 16 N 7.243 4.4627 0.0 0
M  V30 17 C 6.9805 6.8731 0.0 0
M  V30 18 C 8.6033 5.0952 0.0 0
M  V30 19 C 6.9328 2.995 0.0 0
M  V30 20 S 8.4363 6.5867 0.0 0
M  V30 21 C 10.0949 5.1071 0.0 0
M  V30 22 C 5.4889 2.5297 0.0 0
M  V30 23 C 10.8466 3.8184 0.0 0
M  V30 24 C 12.3382 3.8303 0.0 0
M  V30 25 C 13.078 2.5416 0.0 0
M  V30 26 S 14.5696 2.3984 0.0 0
M  V30 27 N 12.4695 1.1813 0.0 0
M  V30 28 C 14.8799 0.9426 0.0 0
M  V30 29 C 13.5792 0.1909 0.0 0
M  V30 30 C 10.9779 0.871 0.0 0
M  V30 31 C 16.1566 0.2028 0.0 0
M  V30 32 C 13.5673 -1.3006 0.0 0
M  V30 33 C 9.9517 2.0046 0.0 0
M  V30 34 C 16.1566 -1.2887 0.0 0
M  V30 35 C 14.856 -2.0404 0.0 0
M  V30 36 C 14.856 -3.532 0.0 0
M  V30 37 S 13.6389 -4.415 0.0 0
M  V30 38 N 16.0731 -4.4031 0.0 0
M  V30 39 C 14.1042 -5.835 0.0 0
M  V30 40 C 15.6077 -5.835 0.0 0
M  V30 41 C 13.3406 -7.1118 0.0 0
M  V30 42 C 16.3476 -7.1118 0.0 0
M  V30 43 C 14.0804 -8.4005 0.0 0
M  V30 44 C 15.5958 -8.4005 0.0 0
M  V30 END ATOM
M  V30 BEGIN BOND
M  V30 1 1 2 3
M  V30 2 1 2 4
M  V30 3 2 3 5
M  V30 4 1 3 6
M  V30 5 2 4 7
M  V30 6 1 4 8
M  V30 7 2 6 9
M  V30 8 1 6 10
M  V30 9 1 7 11
M  V30 10 2 8 12
M  V30 11 1 9 13
M  V30 12 2 10 14
M  V30 13 2 11 15
M  V30 14 1 13 16
M  V30 15 2 13 17
M  V30 16 1 16 18
M  V30 17 1 16 19
M  V30 18 1 17 20
M  V30 19 1 18 21
M  V30 20 1 19 22
M  V30 21 2 21 23
M  V30 22 1 23 24
M  V30 23 2 24 25
M  V30 24 1 25 26
M  V30 25 1 25 27
M  V30 26 1 26 28
M  V30 27 1 27 29
M  V30 28 1 27 30
M  V30 29 1 28 31
M  V30 30 1 29 32
M  V30 31 1 30 33
M  V30 32 2 31 34
M  V30 33 2 32 35
M  V30 34 1 35 36
M  V30 35 1 36 37
M  V30 36 2 36 38
M  V30 37 1 37 39
M  V30 38 1 38 40
M  V30 39 1 39 41
M  V30 40 1 40 42
M  V30 41 2 41 43
M  V30 42 2 42 44
M  V30 43 1 5 7
M  V30 44 1 12 15
M  V30 45 1 14 17
M  V30 46 1 18 20
M  V30 47 2 28 29
M  V30 48 1 34 35
M  V30 49 2 39 40
M  V30 50 1 43 44
M  V30 END BOND
M  V30 END CTAB
M  END
>  <Ligand InChI>
InChI=1S/C35H27N4S4.ClH/c1-3-38-26-20-22(34-36-24-10-5-7-12-28(24)42-34)16-18-30(26)40-32(38)14-9-15-33-39(4-2)27-21-23(17-19-31(27)41-33)35-37-25-11-6-8-13-29(25)43-35;/h5-21H,3-4H2,1-2H3;1H/q+1;/p-1

>  <Ligand InChI Key>
DVORXDHTUKEABE-UHFFFAOYSA-M

>  <BindingDB MonomerID>
50480130

>  <Target Name Assigned by Curator or DataSource>
3C-like proteinase (3CL-PRO)

>  <Target Source Organism According to Curator or DataSource>
Human SARS coronavirus

>  <IC50 (nM)>
2500

>  <PMID>
17709464

>  <Ligand HET ID in PDB>


>  <PDB ID(s) for Ligand-Target Complex>


>  <PubChem CID>


>  <PubChem SID>


>  <ChEMBL ID of Ligand>


>  <DrugBank ID of Ligand>


>  <ZINC ID of Ligand>


>  <PDB ID(s) of Target Chain>
1Q2W,1QZ8,1UJ1,1UK2,1UK3,1UK4,1UW7,1WOF,1Z1I,2A5A,2A5I,2A5K,2ACF,2AHM,2ALV,2AMD,2AMQ,2BX3,2BX4,2C3S,2D2D,2DUC,2FAV,2FE8,2FYG,2G9T,2GA6,2GDT,2GRI,2GT7,2GT8,2GTB,2GX4,2GZ7,2GZ8,2GZ9,2H2Z,2HOB,2HSX,2IDY,2JZF,2K7X,2K87,2KAF,2LIZ,2OP9,2OZK,2RNK,2V6N,2VJ1,2XYQ,2XYR,2XYV,2Z3C,2Z3D,2Z3E,2Z94,2Z9G,2Z9J,2Z9K,2Z9L,2ZU4,2ZU5,3D62,3E91,3E9S,3EA7,3EA8,3EBN,3IWM,3M3V,3MJ5,3R24,3SN8,3SNA,3SNB,3SNC,3SND,3SNE,3SZN,3TIT,3TIU,3TNS,3TNT,3V3M,3VB3,3VB4,3VB5,3VB6,3VB7,4MDS,4MM3,4OVZ,4OW0,5C8S,5C8T,5C8U,5F22,5N19,5N5O,5NFY,5TL6,5TL7,5Y3E,5Y3Q,6JYT,6LNQ,6LNY,6LO0,6NUR,6NUS,6W2A,6W79,6WCO,6XHL,6XHN,6XHO,6XMK,6XOA,7C2K

>  <Smiles>
CCN1c(cc(cc2)-c3nc(cccc4)c4s3)c2SC1/C=C/C=C1/Sc(ccc(-c2nc(cccc3)c3s2)c2)c2N1CC.Cl

$$$$
50480131
Actelion Java MolfileCreator 2.0

  0  0  0  0  0  0              0 V3000
M  V30 BEGIN CTAB
M  V30 COUNTS 33 37 0 0 0
M  V30 BEGIN ATOM
M  V30 1 S 0.0 0.0 0.0 0
M  V30 2 C -0.3195 1.4792 0.0 0
M  V30 3 C 1.4792 -0.142 0.0 0
M  V30 4 C 0.9703 2.2484 0.0 0
M  V30 5 C -1.6331 2.2484 0.0 0
M  V30 6 N 2.0827 1.2425 0.0 0 CHG=1
M  V30 7 C 2.2129 -1.4319 0.0 0
M  V30 8 C 0.9585 3.7632 0.0 0
M  V30 9 C -1.6449 3.7632 0.0 0
M  V30 10 C 3.5383 1.562 0.0 0
M  V30 11 C 3.704 -1.42 0.0 0
M  V30 12 C -0.355 4.5206 0.0 0
M  V30 13 C 3.988 3.0058 0.0 0
M  V30 14 C 4.4377 -2.7099 0.0 0
M  V30 15 C 4.4377 -0.1065 0.0 0
M  V30 16 C 5.9288 -2.6981 0.0 0
M  V30 17 C 5.9288 -0.0946 0.0 0 CFG=2
M  V30 18 C 6.6744 -3.988 0.0 0
M  V30 19 C 6.6744 -1.3845 0.0 0
M  V30 20 C 6.6744 1.2189 0.0 0
M  V30 21 C 8.1655 -3.9762 0.0 0
M  V30 22 C 8.8992 -5.2661 0.0 0
M  V30 23 C 10.3903 -5.2543 0.0 0
M  V30 24 S 11.266 -6.4613 0.0 0
M  V30 25 N 11.266 -4.0235 0.0 0
M  V30 26 C 12.6861 -5.988 0.0 0
M  V30 27 C 12.6861 -4.4732 0.0 0
M  V30 28 C 10.7926 -2.5798 0.0 0
M  V30 29 C 13.976 -6.7335 0.0 0
M  V30 30 C 13.976 -3.7158 0.0 0
M  V30 31 C 11.7867 -1.4555 0.0 0
M  V30 32 C 15.2659 -5.9643 0.0 0
M  V30 33 C 15.2659 -4.4496 0.0 0
M  V30 END ATOM
M  V30 BEGIN BOND
M  V30 1 1 1 2
M  V30 2 1 1 3
M  V30 3 2 2 4
M  V30 4 1 2 5
M  V30 5 2 3 6
M  V30 6 1 3 7
M  V30 7 1 4 8
M  V30 8 2 5 9
M  V30 9 1 6 10
M  V30 10 2 7 11
M  V30 11 2 8 12
M  V30 12 1 10 13
M  V30 13 1 11 14
M  V30 14 1 11 15
M  V30 15 2 14 16
M  V30 16 1 15 17
M  V30 17 1 16 18
M  V30 18 1 16 19
M  V30 19 1 17 20 CFG=1
M  V30 20 2 18 21
M  V30 21 1 21 22
M  V30 22 2 22 23
M  V30 23 1 23 24
M  V30 24 1 23 25
M  V30 25 1 24 26
M  V30 26 1 25 27
M  V30 27 1 25 28
M  V30 28 1 26 29
M  V30 29 1 27 30
M  V30 30 1 28 31
M  V30 31 2 29 32
M  V30 32 2 30 33
M  V30 33 1 4 6
M  V30 34 1 9 12
M  V30 35 1 17 19
M  V30 36 2 26 27
M  V30 37 1 32 33
M  V30 END BOND
M  V30 BEGIN COLLECTION
M  V30 MDLV30/STERAC1 ATOMS=(1 17)
M  V30 END COLLECTION
M  V30 END CTAB
M  END
>  <Ligand InChI>
InChI=1S/C29H31N2S2/c1-4-30-24-12-6-8-14-26(24)32-28(30)16-10-11-22-17-21(3)18-23(19-22)20-29-31(5-2)25-13-7-9-15-27(25)33-29/h6-16,19-21H,4-5,17-18H2,1-3H3/q+1

>  <Ligand InChI Key>
ITFYGTSQODOIQX-UHFFFAOYSA-N

>  <BindingDB MonomerID>
50480131

>  <Target Name Assigned by Curator or DataSource>
3C-like proteinase (3CL-PRO)

>  <Target Source Organism According to Curator or DataSource>
Human SARS coronavirus

>  <IC50 (nM)>
2000

>  <PMID>
17709464

>  <Ligand HET ID in PDB>


>  <PDB ID(s) for Ligand-Target Complex>


>  <PubChem CID>


>  <PubChem SID>


>  <ChEMBL ID of Ligand>


>  <DrugBank ID of Ligand>


>  <ZINC ID of Ligand>


>  <PDB ID(s) of Target Chain>
1Q2W,1QZ8,1UJ1,1UK2,1UK3,1UK4,1UW7,1WOF,1Z1I,2A5A,2A5I,2A5K,2ACF,2AHM,2ALV,2AMD,2AMQ,2BX3,2BX4,2C3S,2D2D,2DUC,2FAV,2FE8,2FYG,2G9T,2GA6,2GDT,2GRI,2GT7,2GT8,2GTB,2GX4,2GZ7,2GZ8,2GZ9,2H2Z,2HOB,2HSX,2IDY,2JZF,2K7X,2K87,2KAF,2LIZ,2OP9,2OZK,2RNK,2V6N,2VJ1,2XYQ,2XYR,2XYV,2Z3C,2Z3D,2Z3E,2Z94,2Z9G,2Z9J,2Z9K,2Z9L,2ZU4,2ZU5,3D62,3E91,3E9S,3EA7,3EA8,3EBN,3IWM,3M3V,3MJ5,3R24,3SN8,3SNA,3SNB,3SNC,3SND,3SNE,3SZN,3TIT,3TIU,3TNS,3TNT,3V3M,3VB3,3VB4,3VB5,3VB6,3VB7,4MDS,4MM3,4OVZ,4OW0,5C8S,5C8T,5C8U,5F22,5N19,5N5O,5NFY,5TL6,5TL7,5Y3E,5Y3Q,6JYT,6LNQ,6LNY,6LO0,6NUR,6NUS,6W2A,6W79,6WCO,6XHL,6XHN,6XHO,6XMK,6XOA,7C2K

>  <Smiles>
CCN1c(cccc2)c2S/C1=C/C=C/C(CC(C)C1)=C/C1=C/c1[n+](CC)c(cccc2)c2s1

$$$$
50480133
Actelion Java MolfileCreator 2.0

  0  0  0  0  0  0              0 V3000
M  V30 BEGIN CTAB
M  V30 COUNTS 38 42 0 0 0
M  V30 BEGIN ATOM
M  V30 1 Cl 0.0 0.0 0.0 0
M  V30 2 S 8.2428 6.2531 0.0 0
M  V30 3 C 6.7624 6.5729 0.0 0
M  V30 4 C 8.3967 4.7727 0.0 0
M  V30 5 C 5.9807 7.8875 0.0 0
M  V30 6 C 6.0044 5.282 0.0 0
M  V30 7 N 7.0229 4.1687 0.0 0
M  V30 8 C 9.889 4.7964 0.0 0
M  V30 9 C 4.4648 7.8875 0.0 0
M  V30 10 C 6.7032 9.2021 0.0 0
M  V30 11 C 4.4885 5.282 0.0 0
M  V30 12 C 6.7032 2.712 0.0 0
M  V30 13 C 10.6351 3.5055 0.0 0
M  V30 14 C 3.7187 6.5966 0.0 0
M  V30 15 C 3.695 9.1784 0.0 0
M  V30 16 C 5.9334 10.5048 0.0 0
M  V30 17 C 5.2583 2.2501 0.0 0
M  V30 18 C 12.1273 3.5292 0.0 0
M  V30 19 C 4.4174 10.493 0.0 0
M  V30 20 C 12.8616 2.2383 0.0 0
M  V30 21 S 14.3538 2.0962 0.0 0
M  V30 22 N 12.2458 0.8763 0.0 0
M  V30 23 C 14.6618 0.6395 0.0 0
M  V30 24 C 13.359 -0.1184 0.0 0
M  V30 25 C 10.7654 0.5684 0.0 0
M  V30 26 C 16.0119 0.0473 0.0 0
M  V30 27 C 13.1932 -1.5988 0.0 0
M  V30 28 C 9.7469 1.6935 0.0 0
M  V30 29 C 16.154 -1.4448 0.0 0
M  V30 30 C 17.208 0.9356 0.0 0
M  V30 31 C 11.8076 -2.2028 0.0 0
M  V30 32 C 14.4012 -2.4633 0.0 0
M  V30 33 C 17.516 -2.037 0.0 0
M  V30 34 C 18.57 0.3434 0.0 0
M  V30 35 C 11.6418 -3.6832 0.0 0
M  V30 36 C 14.2472 -3.9437 0.0 0
M  V30 37 C 18.724 -1.1369 0.0 0
M  V30 38 C 12.8498 -4.5477 0.0 0
M  V30 END ATOM
M  V30 BEGIN BOND
M  V30 1 1 2 3
M  V30 2 1 2 4
M  V30 3 1 3 5
M  V30 4 2 3 6
M  V30 5 1 4 7
M  V30 6 1 4 8
M  V30 7 1 5 9
M  V30 8 2 5 10
M  V30 9 1 6 11
M  V30 10 1 7 12
M  V30 11 2 8 13
M  V30 12 1 9 14
M  V30 13 2 9 15
M  V30 14 1 10 16
M  V30 15 1 12 17
M  V30 16 1 13 18
M  V30 17 1 15 19
M  V30 18 2 18 20
M  V30 19 1 20 21
M  V30 20 1 20 22
M  V30 21 1 21 23
M  V30 22 1 22 24
M  V30 23 1 22 25
M  V30 24 1 23 26
M  V30 25 1 24 27
M  V30 26 1 25 28
M  V30 27 2 26 29
M  V30 28 1 26 30
M  V30 29 2 27 31
M  V30 30 1 27 32
M  V30 31 1 29 33
M  V30 32 2 30 34
M  V30 33 1 31 35
M  V30 34 2 32 36
M  V30 35 2 33 37
M  V30 36 2 35 38
M  V30 37 1 6 7
M  V30 38 2 11 14
M  V30 39 2 16 19
M  V30 40 2 23 24
M  V30 41 1 34 37
M  V30 42 1 36 38
M  V30 END BOND
M  V30 END CTAB
M  END
>  <Ligand InChI>
InChI=1S/C33H29N2S2.ClH/c1-3-34-28-23-22-24-14-11-12-19-27(24)33(28)37-29(34)20-13-21-30-35(4-2)31(25-15-7-5-8-16-25)32(36-30)26-17-9-6-10-18-26;/h5-23H,3-4H2,1-2H3;1H/q+1;/p-1

>  <Ligand InChI Key>
XMUPGSHCCWRJKT-UHFFFAOYSA-M

>  <BindingDB MonomerID>
50480133

>  <Target Name Assigned by Curator or DataSource>
3C-like proteinase (3CL-PRO)

>  <Target Source Organism According to Curator or DataSource>
Human SARS coronavirus

>  <IC50 (nM)>
3800

>  <PMID>
17709464

>  <Ligand HET ID in PDB>


>  <PDB ID(s) for Ligand-Target Complex>


>  <PubChem CID>


>  <PubChem SID>


>  <ChEMBL ID of Ligand>


>  <DrugBank ID of Ligand>


>  <ZINC ID of Ligand>


>  <PDB ID(s) of Target Chain>
1Q2W,1QZ8,1UJ1,1UK2,1UK3,1UK4,1UW7,1WOF,1Z1I,2A5A,2A5I,2A5K,2ACF,2AHM,2ALV,2AMD,2AMQ,2BX3,2BX4,2C3S,2D2D,2DUC,2FAV,2FE8,2FYG,2G9T,2GA6,2GDT,2GRI,2GT7,2GT8,2GTB,2GX4,2GZ7,2GZ8,2GZ9,2H2Z,2HOB,2HSX,2IDY,2JZF,2K7X,2K87,2KAF,2LIZ,2OP9,2OZK,2RNK,2V6N,2VJ1,2XYQ,2XYR,2XYV,2Z3C,2Z3D,2Z3E,2Z94,2Z9G,2Z9J,2Z9K,2Z9L,2ZU4,2ZU5,3D62,3E91,3E9S,3EA7,3EA8,3EBN,3IWM,3M3V,3MJ5,3R24,3SN8,3SNA,3SNB,3SNC,3SND,3SNE,3SZN,3TIT,3TIU,3TNS,3TNT,3V3M,3VB3,3VB4,3VB5,3VB6,3VB7,4MDS,4MM3,4OVZ,4OW0,5C8S,5C8T,5C8U,5F22,5N19,5N5O,5NFY,5TL6,5TL7,5Y3E,5Y3Q,6JYT,6LNQ,6LNY,6LO0,6NUR,6NUS,6W2A,6W79,6WCO,6XHL,6XHN,6XHO,6XMK,6XOA,7C2K

>  <Smiles>
CCN1c(ccc2ccccc22)c2SC1/C=C/C=C1/SC(c2ccccc2)=C(c2ccccc2)N1CC.Cl

$$$$
50494993
Actelion Java MolfileCreator 2.0

  0  0  0  0  0  0              0 V3000
M  V30 BEGIN CTAB
M  V30 COUNTS 23 25 0 0 0
M  V30 BEGIN ATOM
M  V30 1 S 0.0 0.0 0.0 0
M  V30 2 O 0.7388 1.3108 0.0 0
M  V30 3 O -0.7626 1.3108 0.0 0
M  V30 4 N -1.3108 -0.7388 0.0 0
M  V30 5 C 1.2869 -0.7388 0.0 0
M  V30 6 C -1.3227 -2.2283 0.0 0
M  V30 7 C -2.6216 0.0238 0.0 0
M  V30 8 C 2.5739 0.0238 0.0 0
M  V30 9 C 1.275 -2.2283 0.0 0
M  V30 10 C -2.6454 -2.9672 0.0 0
M  V30 11 C -3.9324 -0.7149 0.0 0
M  V30 12 C 3.8609 -0.7149 0.0 0
M  V30 13 C 2.562 -2.9672 0.0 0
M  V30 14 C -3.9562 -2.2045 0.0 0
M  V30 15 C -2.6573 -4.4567 0.0 0
M  V30 16 C -5.2432 0.0476 0.0 0
M  V30 17 C 5.2909 -0.2383 0.0 0
M  V30 18 C 3.849 -2.2164 0.0 0
M  V30 19 O 5.7437 1.2035 0.0 0
M  V30 20 C 6.1727 -1.4538 0.0 0
M  V30 21 N 5.279 -2.6693 0.0 0
M  V30 22 O 7.6623 -1.4419 0.0 0
M  V30 23 C 6.0655 -3.9324 0.0 0
M  V30 END ATOM
M  V30 BEGIN BOND
M  V30 1 2 1 2
M  V30 2 2 1 3
M  V30 3 1 1 4
M  V30 4 1 1 5
M  V30 5 1 4 6
M  V30 6 1 4 7
M  V30 7 2 5 8
M  V30 8 1 5 9
M  V30 9 1 6 10
M  V30 10 1 7 11
M  V30 11 1 8 12
M  V30 12 2 9 13
M  V30 13 1 10 14
M  V30 14 1 10 15
M  V30 15 1 11 16
M  V30 16 1 12 17
M  V30 17 2 12 18
M  V30 18 2 17 19
M  V30 19 1 17 20
M  V30 20 1 18 21
M  V30 21 2 20 22
M  V30 22 1 21 23
M  V30 23 1 11 14
M  V30 24 1 13 18
M  V30 25 1 20 21
M  V30 END BOND
M  V30 END CTAB
M  END
>  <Ligand InChI>
InChI=1S/C16H20N2O4S/c1-10-6-11(2)9-18(8-10)23(21,22)12-4-5-14-13(7-12)15(19)16(20)17(14)3/h4-5,7,10-11H,6,8-9H2,1-3H3

>  <Ligand InChI Key>
IDNPHGVHLGZACH-UHFFFAOYSA-N

>  <BindingDB MonomerID>
50494993

>  <Target Name Assigned by Curator or DataSource>
3C-like proteinase (3CL-PRO)

>  <Target Source Organism According to Curator or DataSource>
Human SARS coronavirus

>  <IC50 (nM)>
2820

>  <PMID>
24316352

>  <Ligand HET ID in PDB>


>  <PDB ID(s) for Ligand-Target Complex>


>  <PubChem CID>


>  <PubChem SID>


>  <ChEMBL ID of Ligand>


>  <DrugBank ID of Ligand>


>  <ZINC ID of Ligand>


>  <PDB ID(s) of Target Chain>
1Q2W,1QZ8,1UJ1,1UK2,1UK3,1UK4,1UW7,1WOF,1Z1I,2A5A,2A5I,2A5K,2ACF,2AHM,2ALV,2AMD,2AMQ,2BX3,2BX4,2C3S,2D2D,2DUC,2FAV,2FE8,2FYG,2G9T,2GA6,2GDT,2GRI,2GT7,2GT8,2GTB,2GX4,2GZ7,2GZ8,2GZ9,2H2Z,2HOB,2HSX,2IDY,2JZF,2K7X,2K87,2KAF,2LIZ,2OP9,2OZK,2RNK,2V6N,2VJ1,2XYQ,2XYR,2XYV,2Z3C,2Z3D,2Z3E,2Z94,2Z9G,2Z9J,2Z9K,2Z9L,2ZU4,2ZU5,3D62,3E91,3E9S,3EA7,3EA8,3EBN,3IWM,3M3V,3MJ5,3R24,3SN8,3SNA,3SNB,3SNC,3SND,3SNE,3SZN,3TIT,3TIU,3TNS,3TNT,3V3M,3VB3,3VB4,3VB5,3VB6,3VB7,4MDS,4MM3,4OVZ,4OW0,5C8S,5C8T,5C8U,5F22,5N19,5N5O,5NFY,5TL6,5TL7,5Y3E,5Y3Q,6JYT,6LNQ,6LNY,6LO0,6NUR,6NUS,6W2A,6W79,6WCO,6XHL,6XHN,6XHO,6XMK,6XOA,7C2K

>  <Smiles>
CC(CC(C)C1)CN1S(c(cc1)cc(C2=O)c1N(C)C2=O)(=O)=O

$$$$
50494994
Actelion Java MolfileCreator 2.0

  0  0  0  0  0  0              0 V3000
M  V30 BEGIN CTAB
M  V30 COUNTS 22 24 0 0 0
M  V30 BEGIN ATOM
M  V30 1 S 0.0 0.0 0.0 0
M  V30 2 O 0.7388 1.3108 0.0 0
M  V30 3 O -0.7626 1.3108 0.0 0
M  V30 4 N -1.3108 -0.7388 0.0 0
M  V30 5 C 1.287 -0.7388 0.0 0
M  V30 6 C -2.6217 0.0238 0.0 0
M  V30 7 C -1.3227 -2.2284 0.0 0
M  V30 8 C 2.574 0.0238 0.0 0
M  V30 9 C 1.2751 -2.2284 0.0 0
M  V30 10 C -3.9326 -0.715 0.0 0
M  V30 11 C -2.6455 -2.9673 0.0 0
M  V30 12 C 3.8611 -0.715 0.0 0
M  V30 13 C 2.5621 -2.9673 0.0 0
M  V30 14 C -3.9564 -2.2046 0.0 0
M  V30 15 C 5.2911 -0.2383 0.0 0
M  V30 16 C 3.8492 -2.2165 0.0 0
M  V30 17 C -5.2673 -2.9435 0.0 0
M  V30 18 O 5.744 1.2036 0.0 0
M  V30 19 C 6.173 -1.4538 0.0 0
M  V30 20 N 5.2792 -2.6694 0.0 0
M  V30 21 O 7.6626 -1.4419 0.0 0
M  V30 22 C 6.0657 -3.9326 0.0 0
M  V30 END ATOM
M  V30 BEGIN BOND
M  V30 1 2 1 2
M  V30 2 2 1 3
M  V30 3 1 1 4
M  V30 4 1 1 5
M  V30 5 1 4 6
M  V30 6 1 4 7
M  V30 7 2 5 8
M  V30 8 1 5 9
M  V30 9 1 6 10
M  V30 10 1 7 11
M  V30 11 1 8 12
M  V30 12 2 9 13
M  V30 13 1 10 14
M  V30 14 1 12 15
M  V30 15 2 12 16
M  V30 16 1 14 17
M  V30 17 2 15 18
M  V30 18 1 15 19
M  V30 19 1 16 20
M  V30 20 2 19 21
M  V30 21 1 20 22
M  V30 22 1 11 14
M  V30 23 1 13 16
M  V30 24 1 19 20
M  V30 END BOND
M  V30 END CTAB
M  END
>  <Ligand InChI>
InChI=1S/C15H18N2O4S/c1-10-5-7-17(8-6-10)22(20,21)11-3-4-13-12(9-11)14(18)15(19)16(13)2/h3-4,9-10H,5-8H2,1-2H3

>  <Ligand InChI Key>
VJMHCEGFLYQVFN-UHFFFAOYSA-N

>  <BindingDB MonomerID>
50494994

>  <Target Name Assigned by Curator or DataSource>
3C-like proteinase (3CL-PRO)

>  <Target Source Organism According to Curator or DataSource>
Human SARS coronavirus

>  <IC50 (nM)>
1040

>  <PMID>
24316352

>  <Ligand HET ID in PDB>


>  <PDB ID(s) for Ligand-Target Complex>


>  <PubChem CID>


>  <PubChem SID>


>  <ChEMBL ID of Ligand>


>  <DrugBank ID of Ligand>


>  <ZINC ID of Ligand>


>  <PDB ID(s) of Target Chain>
1Q2W,1QZ8,1UJ1,1UK2,1UK3,1UK4,1UW7,1WOF,1Z1I,2A5A,2A5I,2A5K,2ACF,2AHM,2ALV,2AMD,2AMQ,2BX3,2BX4,2C3S,2D2D,2DUC,2FAV,2FE8,2FYG,2G9T,2GA6,2GDT,2GRI,2GT7,2GT8,2GTB,2GX4,2GZ7,2GZ8,2GZ9,2H2Z,2HOB,2HSX,2IDY,2JZF,2K7X,2K87,2KAF,2LIZ,2OP9,2OZK,2RNK,2V6N,2VJ1,2XYQ,2XYR,2XYV,2Z3C,2Z3D,2Z3E,2Z94,2Z9G,2Z9J,2Z9K,2Z9L,2ZU4,2ZU5,3D62,3E91,3E9S,3EA7,3EA8,3EBN,3IWM,3M3V,3MJ5,3R24,3SN8,3SNA,3SNB,3SNC,3SND,3SNE,3SZN,3TIT,3TIU,3TNS,3TNT,3V3M,3VB3,3VB4,3VB5,3VB6,3VB7,4MDS,4MM3,4OVZ,4OW0,5C8S,5C8T,5C8U,5F22,5N19,5N5O,5NFY,5TL6,5TL7,5Y3E,5Y3Q,6JYT,6LNQ,6LNY,6LO0,6NUR,6NUS,6W2A,6W79,6WCO,6XHL,6XHN,6XHO,6XMK,6XOA,7C2K

>  <Smiles>
CC(CC1)CCN1S(c(cc1)cc(C2=O)c1N(C)C2=O)(=O)=O

$$$$
50495000
Actelion Java MolfileCreator 2.0

  0  0  0  0  0  0              0 V3000
M  V30 BEGIN CTAB
M  V30 COUNTS 21 23 0 0 0
M  V30 BEGIN ATOM
M  V30 1 S 0.0 0.0 0.0 0
M  V30 2 O 0.7384 1.31 0.0 0
M  V30 3 O -0.7622 1.31 0.0 0
M  V30 4 N -1.31 -0.7384 0.0 0
M  V30 5 C 1.2862 -0.7384 0.0 0
M  V30 6 C -2.6201 0.0238 0.0 0 CFG=2
M  V30 7 C -1.3219 -2.2271 0.0 0
M  V30 8 C 2.5725 0.0238 0.0 0
M  V30 9 C 1.2743 -2.2271 0.0 0
M  V30 10 C -3.9302 -0.7145 0.0 0
M  V30 11 C -2.632 1.5363 0.0 0
M  V30 12 C -2.6439 -2.9655 0.0 0
M  V30 13 C 3.8588 -0.7145 0.0 0
M  V30 14 C 2.5606 -2.9655 0.0 0
M  V30 15 C -3.954 -2.2033 0.0 0
M  V30 16 C 5.2879 -0.2381 0.0 0
M  V30 17 C 3.8468 -2.2152 0.0 0
M  V30 18 O 5.7405 1.2028 0.0 0
M  V30 19 C 6.1693 -1.453 0.0 0
M  V30 20 N 5.276 -2.6678 0.0 0
M  V30 21 O 7.658 -1.441 0.0 0
M  V30 END ATOM
M  V30 BEGIN BOND
M  V30 1 2 1 2
M  V30 2 2 1 3
M  V30 3 1 1 4
M  V30 4 1 1 5
M  V30 5 1 4 6
M  V30 6 1 4 7
M  V30 7 2 5 8
M  V30 8 1 5 9
M  V30 9 1 6 10
M  V30 10 1 6 11 CFG=3
M  V30 11 1 7 12
M  V30 12 1 8 13
M  V30 13 2 9 14
M  V30 14 1 10 15
M  V30 15 1 13 16
M  V30 16 2 13 17
M  V30 17 2 16 18
M  V30 18 1 16 19
M  V30 19 1 17 20
M  V30 20 2 19 21
M  V30 21 1 12 15
M  V30 22 1 14 17
M  V30 23 1 19 20
M  V30 END BOND
M  V30 BEGIN COLLECTION
M  V30 MDLV30/STERAC1 ATOMS=(1 6)
M  V30 END COLLECTION
M  V30 END CTAB
M  END
>  <Ligand InChI>
InChI=1S/C14H16N2O4S/c1-9-4-2-3-7-16(9)21(19,20)10-5-6-12-11(8-10)13(17)14(18)15-12/h5-6,8-9H,2-4,7H2,1H3,(H,15,17,18)

>  <Ligand InChI Key>
GYYSCINPBSJGRR-UHFFFAOYSA-N

>  <BindingDB MonomerID>
50495000

>  <Target Name Assigned by Curator or DataSource>
3C-like proteinase (3CL-PRO)

>  <Target Source Organism According to Curator or DataSource>
Human SARS coronavirus

>  <IC50 (nM)>
2250

>  <PMID>
24316352

>  <Ligand HET ID in PDB>


>  <PDB ID(s) for Ligand-Target Complex>


>  <PubChem CID>


>  <PubChem SID>


>  <ChEMBL ID of Ligand>


>  <DrugBank ID of Ligand>


>  <ZINC ID of Ligand>


>  <PDB ID(s) of Target Chain>
1Q2W,1QZ8,1UJ1,1UK2,1UK3,1UK4,1UW7,1WOF,1Z1I,2A5A,2A5I,2A5K,2ACF,2AHM,2ALV,2AMD,2AMQ,2BX3,2BX4,2C3S,2D2D,2DUC,2FAV,2FE8,2FYG,2G9T,2GA6,2GDT,2GRI,2GT7,2GT8,2GTB,2GX4,2GZ7,2GZ8,2GZ9,2H2Z,2HOB,2HSX,2IDY,2JZF,2K7X,2K87,2KAF,2LIZ,2OP9,2OZK,2RNK,2V6N,2VJ1,2XYQ,2XYR,2XYV,2Z3C,2Z3D,2Z3E,2Z94,2Z9G,2Z9J,2Z9K,2Z9L,2ZU4,2ZU5,3D62,3E91,3E9S,3EA7,3EA8,3EBN,3IWM,3M3V,3MJ5,3R24,3SN8,3SNA,3SNB,3SNC,3SND,3SNE,3SZN,3TIT,3TIU,3TNS,3TNT,3V3M,3VB3,3VB4,3VB5,3VB6,3VB7,4MDS,4MM3,4OVZ,4OW0,5C8S,5C8T,5C8U,5F22,5N19,5N5O,5NFY,5TL6,5TL7,5Y3E,5Y3Q,6JYT,6LNQ,6LNY,6LO0,6NUR,6NUS,6W2A,6W79,6WCO,6XHL,6XHN,6XHO,6XMK,6XOA,7C2K

>  <Smiles>
CC(CCCC1)N1S(c(cc1)cc(C2=O)c1NC2=O)(=O)=O

$$$$
50495001
Actelion Java MolfileCreator 2.0

  0  0  0  0  0  0              0 V3000
M  V30 BEGIN CTAB
M  V30 COUNTS 21 23 0 0 0
M  V30 BEGIN ATOM
M  V30 1 S 0.0 0.0 0.0 0
M  V30 2 O 0.7386 1.3104 0.0 0
M  V30 3 O -0.7624 1.3104 0.0 0
M  V30 4 N -1.3104 -0.7386 0.0 0
M  V30 5 C 1.2865 -0.7386 0.0 0
M  V30 6 C -2.6208 0.0238 0.0 0
M  V30 7 C -1.3223 -2.2277 0.0 0
M  V30 8 C 2.5731 0.0238 0.0 0
M  V30 9 C 1.2746 -2.2277 0.0 0
M  V30 10 C -3.9312 -0.7147 0.0 0
M  V30 11 C -2.6446 -2.9663 0.0 0
M  V30 12 C 3.8597 -0.7147 0.0 0
M  V30 13 C 2.5612 -2.9663 0.0 0
M  V30 14 C -3.955 -2.2038 0.0 0
M  V30 15 C 5.2893 -0.2382 0.0 0
M  V30 16 C 3.8478 -2.2158 0.0 0
M  V30 17 C -5.2655 -2.9424 0.0 0
M  V30 18 O 5.742 1.2032 0.0 0
M  V30 19 C 6.1708 -1.4533 0.0 0
M  V30 20 N 5.2774 -2.6684 0.0 0
M  V30 21 O 7.6599 -1.4414 0.0 0
M  V30 END ATOM
M  V30 BEGIN BOND
M  V30 1 2 1 2
M  V30 2 2 1 3
M  V30 3 1 1 4
M  V30 4 1 1 5
M  V30 5 1 4 6
M  V30 6 1 4 7
M  V30 7 2 5 8
M  V30 8 1 5 9
M  V30 9 1 6 10
M  V30 10 1 7 11
M  V30 11 1 8 12
M  V30 12 2 9 13
M  V30 13 1 10 14
M  V30 14 1 12 15
M  V30 15 2 12 16
M  V30 16 1 14 17
M  V30 17 2 15 18
M  V30 18 1 15 19
M  V30 19 1 16 20
M  V30 20 2 19 21
M  V30 21 1 11 14
M  V30 22 1 13 16
M  V30 23 1 19 20
M  V30 END BOND
M  V30 END CTAB
M  END
>  <Ligand InChI>
InChI=1S/C14H16N2O4S/c1-9-4-6-16(7-5-9)21(19,20)10-2-3-12-11(8-10)13(17)14(18)15-12/h2-3,8-9H,4-7H2,1H3,(H,15,17,18)

>  <Ligand InChI Key>
BQKVHNAQDABFSN-UHFFFAOYSA-N

>  <BindingDB MonomerID>
50495001

>  <Target Name Assigned by Curator or DataSource>
3C-like proteinase (3CL-PRO)

>  <Target Source Organism According to Curator or DataSource>
Human SARS coronavirus

>  <IC50 (nM)>
1180

>  <PMID>
24316352

>  <Ligand HET ID in PDB>


>  <PDB ID(s) for Ligand-Target Complex>


>  <PubChem CID>


>  <PubChem SID>


>  <ChEMBL ID of Ligand>


>  <DrugBank ID of Ligand>


>  <ZINC ID of Ligand>


>  <PDB ID(s) of Target Chain>
1Q2W,1QZ8,1UJ1,1UK2,1UK3,1UK4,1UW7,1WOF,1Z1I,2A5A,2A5I,2A5K,2ACF,2AHM,2ALV,2AMD,2AMQ,2BX3,2BX4,2C3S,2D2D,2DUC,2FAV,2FE8,2FYG,2G9T,2GA6,2GDT,2GRI,2GT7,2GT8,2GTB,2GX4,2GZ7,2GZ8,2GZ9,2H2Z,2HOB,2HSX,2IDY,2JZF,2K7X,2K87,2KAF,2LIZ,2OP9,2OZK,2RNK,2V6N,2VJ1,2XYQ,2XYR,2XYV,2Z3C,2Z3D,2Z3E,2Z94,2Z9G,2Z9J,2Z9K,2Z9L,2ZU4,2ZU5,3D62,3E91,3E9S,3EA7,3EA8,3EBN,3IWM,3M3V,3MJ5,3R24,3SN8,3SNA,3SNB,3SNC,3SND,3SNE,3SZN,3TIT,3TIU,3TNS,3TNT,3V3M,3VB3,3VB4,3VB5,3VB6,3VB7,4MDS,4MM3,4OVZ,4OW0,5C8S,5C8T,5C8U,5F22,5N19,5N5O,5NFY,5TL6,5TL7,5Y3E,5Y3Q,6JYT,6LNQ,6LNY,6LO0,6NUR,6NUS,6W2A,6W79,6WCO,6XHL,6XHN,6XHO,6XMK,6XOA,7C2K

>  <Smiles>
CC(CC1)CCN1S(c(cc1)cc(C2=O)c1NC2=O)(=O)=O

$$$$
50495006
Actelion Java MolfileCreator 2.0

  0  0  0  0  0  0              0 V3000
M  V30 BEGIN CTAB
M  V30 COUNTS 22 24 0 0 0
M  V30 BEGIN ATOM
M  V30 1 S 0.0 0.0 0.0 0
M  V30 2 O 0.7385 1.3103 0.0 0
M  V30 3 O -0.7624 1.3103 0.0 0
M  V30 4 N -1.3103 -0.7385 0.0 0
M  V30 5 C 1.2865 -0.7385 0.0 0
M  V30 6 C -1.3222 -2.2276 0.0 0
M  V30 7 C -2.6207 0.0238 0.0 0
M  V30 8 C 2.5731 0.0238 0.0 0
M  V30 9 C 1.2746 -2.2276 0.0 0
M  V30 10 C -2.6445 -2.9662 0.0 0
M  V30 11 C -3.9311 -0.7147 0.0 0
M  V30 12 C 3.8596 -0.7147 0.0 0
M  V30 13 C 2.5612 -2.9662 0.0 0
M  V30 14 C -3.9549 -2.2038 0.0 0
M  V30 15 C -2.6565 -4.4553 0.0 0
M  V30 16 C -5.2415 0.0476 0.0 0
M  V30 17 C 5.2891 -0.2382 0.0 0
M  V30 18 C 3.8477 -2.2157 0.0 0
M  V30 19 O 5.7418 1.2031 0.0 0
M  V30 20 C 6.1707 -1.4533 0.0 0
M  V30 21 N 5.2772 -2.6684 0.0 0
M  V30 22 O 7.6597 -1.4414 0.0 0
M  V30 END ATOM
M  V30 BEGIN BOND
M  V30 1 2 1 2
M  V30 2 2 1 3
M  V30 3 1 1 4
M  V30 4 1 1 5
M  V30 5 1 4 6
M  V30 6 1 4 7
M  V30 7 2 5 8
M  V30 8 1 5 9
M  V30 9 1 6 10
M  V30 10 1 7 11
M  V30 11 1 8 12
M  V30 12 2 9 13
M  V30 13 1 10 14
M  V30 14 1 10 15
M  V30 15 1 11 16
M  V30 16 1 12 17
M  V30 17 2 12 18
M  V30 18 2 17 19
M  V30 19 1 17 20
M  V30 20 1 18 21
M  V30 21 2 20 22
M  V30 22 1 11 14
M  V30 23 1 13 18
M  V30 24 1 20 21
M  V30 END BOND
M  V30 END CTAB
M  END
>  <Ligand InChI>
InChI=1S/C15H18N2O4S/c1-9-5-10(2)8-17(7-9)22(20,21)11-3-4-13-12(6-11)14(18)15(19)16-13/h3-4,6,9-10H,5,7-8H2,1-2H3,(H,16,18,19)

>  <Ligand InChI Key>
MQFBYURCQCLGNY-UHFFFAOYSA-N

>  <BindingDB MonomerID>
50495006

>  <Target Name Assigned by Curator or DataSource>
3C-like proteinase (3CL-PRO)

>  <Target Source Organism According to Curator or DataSource>
Human SARS coronavirus

>  <IC50 (nM)>
4300

>  <PMID>
24316352

>  <Ligand HET ID in PDB>


>  <PDB ID(s) for Ligand-Target Complex>


>  <PubChem CID>


>  <PubChem SID>


>  <ChEMBL ID of Ligand>


>  <DrugBank ID of Ligand>


>  <ZINC ID of Ligand>


>  <PDB ID(s) of Target Chain>
1Q2W,1QZ8,1UJ1,1UK2,1UK3,1UK4,1UW7,1WOF,1Z1I,2A5A,2A5I,2A5K,2ACF,2AHM,2ALV,2AMD,2AMQ,2BX3,2BX4,2C3S,2D2D,2DUC,2FAV,2FE8,2FYG,2G9T,2GA6,2GDT,2GRI,2GT7,2GT8,2GTB,2GX4,2GZ7,2GZ8,2GZ9,2H2Z,2HOB,2HSX,2IDY,2JZF,2K7X,2K87,2KAF,2LIZ,2OP9,2OZK,2RNK,2V6N,2VJ1,2XYQ,2XYR,2XYV,2Z3C,2Z3D,2Z3E,2Z94,2Z9G,2Z9J,2Z9K,2Z9L,2ZU4,2ZU5,3D62,3E91,3E9S,3EA7,3EA8,3EBN,3IWM,3M3V,3MJ5,3R24,3SN8,3SNA,3SNB,3SNC,3SND,3SNE,3SZN,3TIT,3TIU,3TNS,3TNT,3V3M,3VB3,3VB4,3VB5,3VB6,3VB7,4MDS,4MM3,4OVZ,4OW0,5C8S,5C8T,5C8U,5F22,5N19,5N5O,5NFY,5TL6,5TL7,5Y3E,5Y3Q,6JYT,6LNQ,6LNY,6LO0,6NUR,6NUS,6W2A,6W79,6WCO,6XHL,6XHN,6XHO,6XMK,6XOA,7C2K

>  <Smiles>
CC(CC(C)C1)CN1S(c(cc1)cc(C2=O)c1NC2=O)(=O)=O

$$$$
10310
Actelion Java MolfileCreator 2.0

  0  0  0  0  0  0              0 V3000
M  V30 BEGIN CTAB
M  V30 COUNTS 20 22 0 0 0
M  V30 BEGIN ATOM
M  V30 1 S 0.0 0.0 0.0 0
M  V30 2 O 0.3788 1.468 0.0 0
M  V30 3 O -1.0773 1.0773 0.0 0
M  V30 4 N -1.3141 -0.734 0.0 0
M  V30 5 C 1.2904 -0.734 0.0 0
M  V30 6 C -2.6164 0.0473 0.0 0
M  V30 7 C -1.3496 -2.2257 0.0 0
M  V30 8 C 2.5809 0.0236 0.0 0
M  V30 9 C 1.2786 -2.2257 0.0 0
M  V30 10 C -3.9424 -0.6748 0.0 0
M  V30 11 C -2.6756 -2.9479 0.0 0
M  V30 12 C 3.8713 -0.7103 0.0 0
M  V30 13 C 2.569 -2.9597 0.0 0
M  V30 14 C -3.9779 -2.1665 0.0 0
M  V30 15 C 5.292 -0.2367 0.0 0
M  V30 16 C 3.8595 -2.202 0.0 0
M  V30 17 O 5.7419 1.2075 0.0 0
M  V30 18 C 6.1681 -1.4443 0.0 0
M  V30 19 N 5.2802 -2.6519 0.0 0
M  V30 20 O 7.6598 -1.4325 0.0 0
M  V30 END ATOM
M  V30 BEGIN BOND
M  V30 1 2 1 2
M  V30 2 2 1 3
M  V30 3 1 1 4
M  V30 4 1 1 5
M  V30 5 1 4 6
M  V30 6 1 4 7
M  V30 7 2 5 8
M  V30 8 1 5 9
M  V30 9 1 6 10
M  V30 10 1 7 11
M  V30 11 1 8 12
M  V30 12 2 9 13
M  V30 13 1 10 14
M  V30 14 1 12 15
M  V30 15 2 12 16
M  V30 16 2 15 17
M  V30 17 1 15 18
M  V30 18 1 16 19
M  V30 19 2 18 20
M  V30 20 1 11 14
M  V30 21 1 13 16
M  V30 22 1 18 19
M  V30 END BOND
M  V30 END CTAB
M  END
>  <Ligand InChI>
InChI=1S/C13H14N2O4S/c16-12-10-8-9(4-5-11(10)14-13(12)17)20(18,19)15-6-2-1-3-7-15/h4-5,8H,1-3,6-7H2,(H,14,16,17)

>  <Ligand InChI Key>
YATIWPMEKYVTAO-UHFFFAOYSA-N

>  <BindingDB MonomerID>
10310

>  <Target Name Assigned by Curator or DataSource>
3C-like proteinase (3CL-PRO)

>  <Target Source Organism According to Curator or DataSource>
Human SARS coronavirus

>  <IC50 (nM)>
4450

>  <PMID>
24316352

>  <Ligand HET ID in PDB>


>  <PDB ID(s) for Ligand-Target Complex>


>  <PubChem CID>
4117383

>  <PubChem SID>
46510937

>  <ChEMBL ID of Ligand>


>  <DrugBank ID of Ligand>


>  <ZINC ID of Ligand>
ZINC02944779

>  <PDB ID(s) of Target Chain>
1Q2W,1QZ8,1UJ1,1UK2,1UK3,1UK4,1UW7,1WOF,1Z1I,2A5A,2A5I,2A5K,2ACF,2AHM,2ALV,2AMD,2AMQ,2BX3,2BX4,2C3S,2D2D,2DUC,2FAV,2FE8,2FYG,2G9T,2GA6,2GDT,2GRI,2GT7,2GT8,2GTB,2GX4,2GZ7,2GZ8,2GZ9,2H2Z,2HOB,2HSX,2IDY,2JZF,2K7X,2K87,2KAF,2LIZ,2OP9,2OZK,2RNK,2V6N,2VJ1,2XYQ,2XYR,2XYV,2Z3C,2Z3D,2Z3E,2Z94,2Z9G,2Z9J,2Z9K,2Z9L,2ZU4,2ZU5,3D62,3E91,3E9S,3EA7,3EA8,3EBN,3IWM,3M3V,3MJ5,3R24,3SN8,3SNA,3SNB,3SNC,3SND,3SNE,3SZN,3TIT,3TIU,3TNS,3TNT,3V3M,3VB3,3VB4,3VB5,3VB6,3VB7,4MDS,4MM3,4OVZ,4OW0,5C8S,5C8T,5C8U,5F22,5N19,5N5O,5NFY,5TL6,5TL7,5Y3E,5Y3Q,6JYT,6LNQ,6LNY,6LO0,6NUR,6NUS,6W2A,6W79,6WCO,6XHL,6XHN,6XHO,6XMK,6XOA,7C2K

>  <Smiles>
O=C(c(cc(cc1)S(N2CCCCC2)(=O)=O)c1N1)C1=O

$$$$
50495009
Actelion Java MolfileCreator 2.0

  0  0  0  0  0  0              0 V3000
M  V30 BEGIN CTAB
M  V30 COUNTS 28 31 0 0 0
M  V30 BEGIN ATOM
M  V30 1 S 0.0 0.0 0.0 0
M  V30 2 O 0.739 1.3111 0.0 0
M  V30 3 O -0.7628 1.3111 0.0 0
M  V30 4 N -1.3111 -0.739 0.0 0
M  V30 5 C 1.2873 -0.739 0.0 0
M  V30 6 C -2.6223 0.0238 0.0 0
M  V30 7 C -1.323 -2.2289 0.0 0
M  V30 8 C 2.5746 0.0238 0.0 0
M  V30 9 C 1.2753 -2.2289 0.0 0
M  V30 10 C -3.9334 -0.7151 0.0 0
M  V30 11 C -2.658 -2.9679 0.0 0
M  V30 12 C 3.8619 -0.7151 0.0 0
M  V30 13 C 2.5627 -2.9679 0.0 0
M  V30 14 C -3.9573 -2.2051 0.0 0
M  V30 15 C 5.2923 -0.2383 0.0 0
M  V30 16 C 3.85 -2.217 0.0 0
M  V30 17 C -5.2803 -2.9441 0.0 0
M  V30 18 O 5.7452 1.2038 0.0 0
M  V30 19 C 6.1743 -1.4541 0.0 0
M  V30 20 N 5.2803 -2.6699 0.0 0
M  V30 21 O 7.6643 -1.4422 0.0 0
M  V30 22 C 6.067 -3.9334 0.0 0
M  V30 23 C 5.3399 -5.2446 0.0 0
M  V30 24 C 3.8261 -5.2803 0.0 0
M  V30 25 C 6.1266 -6.4961 0.0 0
M  V30 26 C 3.111 -6.5915 0.0 0
M  V30 27 C 5.4114 -7.8073 0.0 0
M  V30 28 C 3.8977 -7.855 0.0 0
M  V30 END ATOM
M  V30 BEGIN BOND
M  V30 1 2 1 2
M  V30 2 2 1 3
M  V30 3 1 1 4
M  V30 4 1 1 5
M  V30 5 1 4 6
M  V30 6 1 4 7
M  V30 7 2 5 8
M  V30 8 1 5 9
M  V30 9 1 6 10
M  V30 10 1 7 11
M  V30 11 1 8 12
M  V30 12 2 9 13
M  V30 13 1 10 14
M  V30 14 1 12 15
M  V30 15 2 12 16
M  V30 16 1 14 17
M  V30 17 2 15 18
M  V30 18 1 15 19
M  V30 19 1 16 20
M  V30 20 2 19 21
M  V30 21 1 20 22
M  V30 22 1 22 23
M  V30 23 2 23 24
M  V30 24 1 23 25
M  V30 25 1 24 26
M  V30 26 2 25 27
M  V30 27 2 26 28
M  V30 28 1 11 14
M  V30 29 1 13 16
M  V30 30 1 19 20
M  V30 31 1 27 28
M  V30 END BOND
M  V30 END CTAB
M  END
>  <Ligand InChI>
InChI=1S/C21H22N2O4S/c1-15-9-11-22(12-10-15)28(26,27)17-7-8-19-18(13-17)20(24)21(25)23(19)14-16-5-3-2-4-6-16/h2-8,13,15H,9-12,14H2,1H3

>  <Ligand InChI Key>
FXEKOZSZGNWFIV-UHFFFAOYSA-N

>  <BindingDB MonomerID>
50495009

>  <Target Name Assigned by Curator or DataSource>
3C-like proteinase (3CL-PRO)

>  <Target Source Organism According to Curator or DataSource>
Human SARS coronavirus

>  <IC50 (nM)>
1690

>  <PMID>
24316352

>  <Ligand HET ID in PDB>


>  <PDB ID(s) for Ligand-Target Complex>


>  <PubChem CID>


>  <PubChem SID>


>  <ChEMBL ID of Ligand>


>  <DrugBank ID of Ligand>


>  <ZINC ID of Ligand>


>  <PDB ID(s) of Target Chain>
1Q2W,1QZ8,1UJ1,1UK2,1UK3,1UK4,1UW7,1WOF,1Z1I,2A5A,2A5I,2A5K,2ACF,2AHM,2ALV,2AMD,2AMQ,2BX3,2BX4,2C3S,2D2D,2DUC,2FAV,2FE8,2FYG,2G9T,2GA6,2GDT,2GRI,2GT7,2GT8,2GTB,2GX4,2GZ7,2GZ8,2GZ9,2H2Z,2HOB,2HSX,2IDY,2JZF,2K7X,2K87,2KAF,2LIZ,2OP9,2OZK,2RNK,2V6N,2VJ1,2XYQ,2XYR,2XYV,2Z3C,2Z3D,2Z3E,2Z94,2Z9G,2Z9J,2Z9K,2Z9L,2ZU4,2ZU5,3D62,3E91,3E9S,3EA7,3EA8,3EBN,3IWM,3M3V,3MJ5,3R24,3SN8,3SNA,3SNB,3SNC,3SND,3SNE,3SZN,3TIT,3TIU,3TNS,3TNT,3V3M,3VB3,3VB4,3VB5,3VB6,3VB7,4MDS,4MM3,4OVZ,4OW0,5C8S,5C8T,5C8U,5F22,5N19,5N5O,5NFY,5TL6,5TL7,5Y3E,5Y3Q,6JYT,6LNQ,6LNY,6LO0,6NUR,6NUS,6W2A,6W79,6WCO,6XHL,6XHN,6XHO,6XMK,6XOA,7C2K

>  <Smiles>
CC(CC1)CCN1S(c(cc1)cc(C2=O)c1N(Cc1ccccc1)C2=O)(=O)=O

$$$$
50481948
Actelion Java MolfileCreator 2.0

  0  0  0  0  0  0              0 V3000
M  V30 BEGIN CTAB
M  V30 COUNTS 30 34 0 0 0
M  V30 BEGIN ATOM
M  V30 1 O 0.0 0.0 0.0 0
M  V30 2 C 1.2995 -0.746 0.0 0
M  V30 3 C 1.2875 -2.238 0.0 0
M  V30 4 C 2.587 0.036 0.0 0
M  V30 5 O -0.036 -2.9841 0.0 0
M  V30 6 C 2.575 -2.9841 0.0 0
M  V30 7 C 3.8745 -0.7219 0.0 0
M  V30 8 C 3.8625 -2.214 0.0 0
M  V30 9 C 2.5629 -4.4761 0.0 0
M  V30 10 C 5.162 0.0481 0.0 0 CFG=2
M  V30 11 C 5.15 -2.96 0.0 0
M  V30 12 C 6.4495 -0.6978 0.0 0
M  V30 13 C 5.15 1.5642 0.0 0
M  V30 14 C 5.1379 -1.4439 0.0 0
M  V30 15 C 6.4495 -2.1899 0.0 0
M  V30 16 C 7.737 0.0721 0.0 0 CFG=1
M  V30 17 C 6.4495 2.3223 0.0 0
M  V30 18 C 7.749 1.5883 0.0 0 CFG=2
M  V30 19 C 9.0004 -0.6858 0.0 0
M  V30 20 C 7.7009 -1.4198 0.0 0
M  V30 21 C 9.0365 2.3343 0.0 0 CFG=2
M  V30 22 C 7.7129 3.1044 0.0 0
M  V30 23 C 10.3 0.0601 0.0 0
M  V30 24 C 10.3 1.5762 0.0 0 CFG=2
M  V30 25 C 9.0486 3.8384 0.0 0
M  V30 26 C 11.5995 2.3223 0.0 0
M  V30 27 C 10.2759 3.1164 0.0 0
M  V30 28 C 10.3481 4.5844 0.0 0
M  V30 29 C 11.6236 3.8264 0.0 0
M  V30 30 C 10.3722 6.1126 0.0 0
M  V30 END ATOM
M  V30 BEGIN BOND
M  V30 1 2 1 2
M  V30 2 1 2 3
M  V30 3 1 2 4
M  V30 4 1 3 5
M  V30 5 2 3 6
M  V30 6 2 4 7
M  V30 7 1 6 8
M  V30 8 1 6 9
M  V30 9 1 7 10
M  V30 10 2 8 11
M  V30 11 1 10 12
M  V30 12 1 10 13
M  V30 13 1 10 14 CFG=3
M  V30 14 1 11 15
M  V30 15 1 12 16
M  V30 16 1 13 17
M  V30 17 1 16 18
M  V30 18 1 16 19
M  V30 19 1 16 20 CFG=3
M  V30 20 1 18 21
M  V30 21 1 18 22 CFG=1
M  V30 22 1 19 23
M  V30 23 1 21 24
M  V30 24 1 21 25 CFG=1
M  V30 25 1 24 26
M  V30 26 1 24 27 CFG=3
M  V30 27 1 25 28
M  V30 28 1 26 29
M  V30 29 1 28 30
M  V30 30 1 7 8
M  V30 31 2 12 15
M  V30 32 1 17 18
M  V30 33 1 23 24
M  V30 34 2 28 29
M  V30 END BOND
M  V30 BEGIN COLLECTION
M  V30 MDLV30/STERAC1 ATOMS=(5 10 16 18 21 24)
M  V30 END COLLECTION
M  V30 END CTAB
M  END
>  <Ligand InChI>
InChI=1S/C28H36O2/c1-17-9-10-25(3)11-13-27(5)22-8-7-19-18(2)24(30)21(29)16-20(19)26(22,4)12-14-28(27,6)23(25)15-17/h7-9,16,23,30H,10-15H2,1-6H3/t23-,25-,26+,27-,28+/m1/s1

>  <Ligand InChI Key>
FLMDVQMCMIGPEK-IPTPSVHJSA-N

>  <BindingDB MonomerID>
50481948

>  <Target Name Assigned by Curator or DataSource>
3C-like proteinase (3CL-PRO)

>  <Target Source Organism According to Curator or DataSource>
Human SARS coronavirus

>  <IC50 (nM)>
2600

>  <PMID>
20167482

>  <Ligand HET ID in PDB>


>  <PDB ID(s) for Ligand-Target Complex>


>  <PubChem CID>


>  <PubChem SID>


>  <ChEMBL ID of Ligand>


>  <DrugBank ID of Ligand>


>  <ZINC ID of Ligand>


>  <PDB ID(s) of Target Chain>
1Q2W,1QZ8,1UJ1,1UK2,1UK3,1UK4,1UW7,1WOF,1Z1I,2A5A,2A5I,2A5K,2ACF,2AHM,2ALV,2AMD,2AMQ,2BX3,2BX4,2C3S,2D2D,2DUC,2FAV,2FE8,2FYG,2G9T,2GA6,2GDT,2GRI,2GT7,2GT8,2GTB,2GX4,2GZ7,2GZ8,2GZ9,2H2Z,2HOB,2HSX,2IDY,2JZF,2K7X,2K87,2KAF,2LIZ,2OP9,2OZK,2RNK,2V6N,2VJ1,2XYQ,2XYR,2XYV,2Z3C,2Z3D,2Z3E,2Z94,2Z9G,2Z9J,2Z9K,2Z9L,2ZU4,2ZU5,3D62,3E91,3E9S,3EA7,3EA8,3EBN,3IWM,3M3V,3MJ5,3R24,3SN8,3SNA,3SNB,3SNC,3SND,3SNE,3SZN,3TIT,3TIU,3TNS,3TNT,3V3M,3VB3,3VB4,3VB5,3VB6,3VB7,4MDS,4MM3,4OVZ,4OW0,5C8S,5C8T,5C8U,5F22,5N19,5N5O,5NFY,5TL6,5TL7,5Y3E,5Y3Q,6JYT,6LNQ,6LNY,6LO0,6NUR,6NUS,6W2A,6W79,6WCO,6XHL,6XHN,6XHO,6XMK,6XOA,7C2K

>  <Smiles>
C[C@@](CC1)(CC=C(C)C2)[C@H]2[C@@](C)(CC[C@]23C)[C@]1(C)C3=CC=C(C(C)=C1O)C2=CC1=O

$$$$
50259983
Actelion Java MolfileCreator 2.0

  0  0  0  0  0  0              0 V3000
M  V30 BEGIN CTAB
M  V30 COUNTS 54 61 0 0 0
M  V30 BEGIN ATOM
M  V30 1 O 0.0 0.0 0.0 0
M  V30 2 C 1.2964 -0.7374 0.0 0
M  V30 3 C -1.3082 -0.7492 0.0 0
M  V30 4 C 1.2845 -2.2241 0.0 0
M  V30 5 C 2.569 0.0356 0.0 0
M  V30 6 C -1.3082 -2.2478 0.0 0
M  V30 7 C -2.6284 0.0118 0.0 0
M  V30 8 O -0.0356 -2.9733 0.0 0
M  V30 9 C 2.569 -2.9615 0.0 0
M  V30 10 O 2.5452 1.5461 0.0 0
M  V30 11 C 3.8654 -0.6898 0.0 0
M  V30 12 C -2.6284 -2.9971 0.0 0
M  V30 13 O -2.6403 1.5223 0.0 0
M  V30 14 C -3.9367 -0.7255 0.0 0
M  V30 15 O 2.569 -4.4482 0.0 0
M  V30 16 C 3.8535 -2.1884 0.0 0
M  V30 17 C 3.8297 2.3192 0.0 0
M  V30 18 O 5.1499 0.0832 0.0 0
M  V30 19 C -3.9486 -2.2359 0.0 0
M  V30 20 C 5.1261 1.5818 0.0 0
M  V30 21 C 3.8059 3.8297 0.0 0
M  V30 22 O -5.2688 -2.9733 0.0 0
M  V30 23 C 6.4106 2.3549 0.0 0
M  V30 24 C 5.0904 4.6028 0.0 0
M  V30 25 C -5.2212 -4.46 0.0 0
M  V30 26 O 7.707 1.6294 0.0 0
M  V30 27 C 6.3868 3.8773 0.0 0
M  V30 28 O 5.0666 6.1133 0.0 0
M  V30 29 C -6.5057 -5.245 0.0 0
M  V30 30 C -3.901 -5.1618 0.0 0
M  V30 31 O -7.8497 -4.5314 0.0 0
M  V30 32 C -6.4582 -6.7317 0.0 0
M  V30 33 O -2.6403 -4.353 0.0 0
M  V30 34 C -3.8654 -6.6485 0.0 0
M  V30 35 C -5.138 -7.4216 0.0 0
M  V30 36 O -5.0904 -8.9082 0.0 0
M  V30 37 C -6.3749 -9.6932 0.0 0
M  V30 38 C -6.3273 -11.1799 0.0 0
M  V30 39 C -7.707 -8.9796 0.0 0
M  V30 40 O -4.9953 -11.8698 0.0 0
M  V30 41 C -7.6118 -11.9768 0.0 0
M  V30 42 O -7.7784 -7.4691 0.0 0
M  V30 43 C -8.9915 -9.7646 0.0 0
M  V30 44 C -4.9596 -13.3683 0.0 0
M  V30 45 O -7.5643 -13.4754 0.0 0
M  V30 46 C -8.9558 -11.2632 0.0 0
M  V30 47 C -6.2441 -14.1652 0.0 0
M  V30 48 C -3.6394 -14.0582 0.0 0
M  V30 49 O -10.2403 -12.0601 0.0 0
M  V30 50 C -6.1965 -15.6638 0.0 0
M  V30 51 O -2.3787 -13.2375 0.0 0
M  V30 52 C -3.5918 -15.5449 0.0 0
M  V30 53 C -4.8763 -16.3417 0.0 0
M  V30 54 O -4.8169 -17.8284 0.0 0
M  V30 END ATOM
M  V30 BEGIN BOND
M  V30 1 1 1 2
M  V30 2 1 1 3
M  V30 3 2 2 4
M  V30 4 1 2 5
M  V30 5 2 3 6
M  V30 6 1 3 7
M  V30 7 1 4 8
M  V30 8 1 4 9
M  V30 9 1 5 10
M  V30 10 2 5 11
M  V30 11 1 6 12
M  V30 12 1 7 13
M  V30 13 2 7 14
M  V30 14 1 9 15
M  V30 15 2 9 16
M  V30 16 1 10 17
M  V30 17 1 11 18
M  V30 18 2 12 19
M  V30 19 2 17 20
M  V30 20 1 17 21
M  V30 21 1 19 22
M  V30 22 1 20 23
M  V30 23 2 21 24
M  V30 24 1 22 25
M  V30 25 1 23 26
M  V30 26 2 23 27
M  V30 27 1 24 28
M  V30 28 2 25 29
M  V30 29 1 25 30
M  V30 30 1 29 31
M  V30 31 1 29 32
M  V30 32 1 30 33
M  V30 33 2 30 34
M  V30 34 2 32 35
M  V30 35 1 35 36
M  V30 36 1 36 37
M  V30 37 2 37 38
M  V30 38 1 37 39
M  V30 39 1 38 40
M  V30 40 1 38 41
M  V30 41 1 39 42
M  V30 42 2 39 43
M  V30 43 1 40 44
M  V30 44 1 41 45
M  V30 45 2 41 46
M  V30 46 2 44 47
M  V30 47 1 44 48
M  V30 48 1 46 49
M  V30 49 1 47 50
M  V30 50 1 48 51
M  V30 51 2 48 52
M  V30 52 2 50 53
M  V30 53 1 53 54
M  V30 54 1 6 8
M  V30 55 1 11 16
M  V30 56 1 14 19
M  V30 57 1 24 27
M  V30 58 1 34 35
M  V30 59 1 43 46
M  V30 60 1 45 47
M  V30 61 1 52 53
M  V30 END BOND
M  V30 END CTAB
M  END
>  <Ligand InChI>
InChI=1S/C36H22O18/c37-12-1-13(38)3-15(2-12)49-31-22(44)10-25(47)34-35(31)54-30-21(43)8-17(9-27(30)52-34)48-28-19(41)6-16(7-20(28)42)50-32-23(45)11-24(46)33-36(32)53-29-18(40)4-14(39)5-26(29)51-33/h1-11,37-47H

>  <Ligand InChI Key>
DRZQFGYIIYNNEC-UHFFFAOYSA-N

>  <BindingDB MonomerID>
50259983

>  <Target Name Assigned by Curator or DataSource>
3C-like proteinase (3CL-PRO)

>  <Target Source Organism According to Curator or DataSource>
Human SARS coronavirus

>  <IC50 (nM)>
2700

>  <PMID>
23647823

>  <Ligand HET ID in PDB>


>  <PDB ID(s) for Ligand-Target Complex>


>  <PubChem CID>
3008868

>  <PubChem SID>
104109953

>  <ChEMBL ID of Ligand>
CHEMBL508791

>  <DrugBank ID of Ligand>


>  <ZINC ID of Ligand>
ZINC85493573

>  <PDB ID(s) of Target Chain>
1Q2W,1QZ8,1UJ1,1UK2,1UK3,1UK4,1UW7,1WOF,1Z1I,2A5A,2A5I,2A5K,2ACF,2AHM,2ALV,2AMD,2AMQ,2BX3,2BX4,2C3S,2D2D,2DUC,2FAV,2FE8,2FYG,2G9T,2GA6,2GDT,2GRI,2GT7,2GT8,2GTB,2GX4,2GZ7,2GZ8,2GZ9,2H2Z,2HOB,2HSX,2IDY,2JZF,2K7X,2K87,2KAF,2LIZ,2OP9,2OZK,2RNK,2V6N,2VJ1,2XYQ,2XYR,2XYV,2Z3C,2Z3D,2Z3E,2Z94,2Z9G,2Z9J,2Z9K,2Z9L,2ZU4,2ZU5,3D62,3E91,3E9S,3EA7,3EA8,3EBN,3IWM,3M3V,3MJ5,3R24,3SN8,3SNA,3SNB,3SNC,3SND,3SNE,3SZN,3TIT,3TIU,3TNS,3TNT,3V3M,3VB3,3VB4,3VB5,3VB6,3VB7,4MDS,4MM3,4OVZ,4OW0,5C8S,5C8T,5C8U,5F22,5N19,5N5O,5NFY,5TL6,5TL7,5Y3E,5Y3Q,6JYT,6LNQ,6LNY,6LO0,6NUR,6NUS,6W2A,6W79,6WCO,6XHL,6XHN,6XHO,6XMK,6XOA,7C2K

>  <Smiles>
Oc1cc(Oc(c2c(c(O)c3)Oc(cc(cc4O)Oc(c(O)cc(Oc(c(O)c5)c6Oc(c(O)cc(O)c7)c7Oc6c5O)c5)c5O)c4O2)c3O)cc(O)c1

$$$$
154573
Actelion Java MolfileCreator 2.0

  0  0  0  0  0  0              0 V3000
M  V30 BEGIN CTAB
M  V30 COUNTS 14 15 0 0 0
M  V30 BEGIN ATOM
M  V30 1 F 0.0 0.0 0.0 0
M  V30 2 C -0.0118 -1.4939 0.0 0
M  V30 3 F -1.5295 -1.4821 0.0 0
M  V30 4 F -0.0237 -2.9879 0.0 0
M  V30 5 C 1.4821 -1.4821 0.0 0
M  V30 6 N 2.3595 -0.2489 0.0 0
M  V30 7 N 2.3595 -2.6915 0.0 0
M  V30 8 C 3.7823 -0.6995 0.0 0
M  V30 9 C 3.7823 -2.2172 0.0 0
M  V30 10 N 5.0747 0.0592 0.0 0
M  V30 11 C 5.0747 -2.9523 0.0 0
M  V30 12 C 6.3671 -0.6758 0.0 0
M  V30 13 N 6.3671 -2.1935 0.0 0
M  V30 14 N 5.0628 -4.4463 0.0 0
M  V30 END ATOM
M  V30 BEGIN BOND
M  V30 1 1 1 2
M  V30 2 1 2 3
M  V30 3 1 2 4
M  V30 4 1 2 5
M  V30 5 2 5 6
M  V30 6 1 5 7
M  V30 7 1 6 8
M  V30 8 2 7 9
M  V30 9 1 8 10
M  V30 10 1 9 11
M  V30 11 2 10 12
M  V30 12 2 11 13
M  V30 13 1 11 14
M  V30 14 1 8 9
M  V30 15 1 12 13
M  V30 END BOND
M  V30 END CTAB
M  END
>  <Ligand InChI>
InChI=1S/C6H4F3N5/c7-6(8,9)5-13-2-3(10)11-1-12-4(2)14-5/h1H,(H3,10,11,12,13,14)

>  <Ligand InChI Key>
LMWFSHBVFKCMHW-UHFFFAOYSA-N

>  <BindingDB MonomerID>
154573

>  <Target Name Assigned by Curator or DataSource>
3C-like proteinase (3CL-PRO)

>  <Target Source Organism According to Curator or DataSource>
Human SARS coronavirus

>  <IC50 (nM)>
2200

>  <PMID>
24332657

>  <Ligand HET ID in PDB>


>  <PDB ID(s) for Ligand-Target Complex>


>  <PubChem CID>
3635406

>  <PubChem SID>
253651675

>  <ChEMBL ID of Ligand>


>  <DrugBank ID of Ligand>


>  <ZINC ID of Ligand>


>  <PDB ID(s) of Target Chain>
1Q2W,1QZ8,1UJ1,1UK2,1UK3,1UK4,1UW7,1WOF,1Z1I,2A5A,2A5I,2A5K,2ACF,2AHM,2ALV,2AMD,2AMQ,2BX3,2BX4,2C3S,2D2D,2DUC,2FAV,2FE8,2FYG,2G9T,2GA6,2GDT,2GRI,2GT7,2GT8,2GTB,2GX4,2GZ7,2GZ8,2GZ9,2H2Z,2HOB,2HSX,2IDY,2JZF,2K7X,2K87,2KAF,2LIZ,2OP9,2OZK,2RNK,2V6N,2VJ1,2XYQ,2XYR,2XYV,2Z3C,2Z3D,2Z3E,2Z94,2Z9G,2Z9J,2Z9K,2Z9L,2ZU4,2ZU5,3D62,3E91,3E9S,3EA7,3EA8,3EBN,3IWM,3M3V,3MJ5,3R24,3SN8,3SNA,3SNB,3SNC,3SND,3SNE,3SZN,3TIT,3TIU,3TNS,3TNT,3V3M,3VB3,3VB4,3VB5,3VB6,3VB7,4MDS,4MM3,4OVZ,4OW0,5C8S,5C8T,5C8U,5F22,5N19,5N5O,5NFY,5TL6,5TL7,5Y3E,5Y3Q,6JYT,6LNQ,6LNY,6LO0,6NUR,6NUS,6W2A,6W79,6WCO,6XHL,6XHN,6XHO,6XMK,6XOA,7C2K

>  <Smiles>
NC1=NC=NC2N=C(C(F)(F)F)N=C12

$$$$
50495212
Actelion Java MolfileCreator 2.0

  0  0  0  0  0  0              0 V3000
M  V30 BEGIN CTAB
M  V30 COUNTS 21 22 0 0 0
M  V30 BEGIN ATOM
M  V30 1 Cl 0.0 0.0 0.0 0
M  V30 2 C 1.2947 -0.7364 0.0 0
M  V30 3 C 1.2828 -2.2331 0.0 0
M  V30 4 C 2.5895 0.0237 0.0 0
M  V30 5 C 2.5776 -2.9696 0.0 0
M  V30 6 C 3.8842 -0.7127 0.0 0
M  V30 7 S 2.5657 -4.4663 0.0 0
M  V30 8 C 3.8723 -2.2093 0.0 0
M  V30 9 O 1.0453 -4.4544 0.0 0
M  V30 10 O 4.0624 -4.4544 0.0 0
M  V30 11 N 2.5538 -5.9629 0.0 0
M  V30 12 C 3.8486 -6.6994 0.0 0
M  V30 13 C 1.2353 -6.6994 0.0 0
M  V30 14 C 3.8367 -8.1961 0.0 0
M  V30 15 O 2.5182 -8.9326 0.0 0
M  V30 16 N 5.1315 -8.9326 0.0 0
M  V30 17 C 5.1196 -10.4293 0.0 0
M  V30 18 C 6.3312 -11.3083 0.0 0
M  V30 19 C 3.8842 -11.3083 0.0 0
M  V30 20 C 5.856 -12.7337 0.0 0
M  V30 21 C 4.3356 -12.7337 0.0 0
M  V30 END ATOM
M  V30 BEGIN BOND
M  V30 1 1 1 2
M  V30 2 2 2 3
M  V30 3 1 2 4
M  V30 4 1 3 5
M  V30 5 2 4 6
M  V30 6 1 5 7
M  V30 7 2 5 8
M  V30 8 2 7 9
M  V30 9 2 7 10
M  V30 10 1 7 11
M  V30 11 1 11 12
M  V30 12 1 11 13
M  V30 13 1 12 14
M  V30 14 2 14 15
M  V30 15 1 14 16
M  V30 16 1 16 17
M  V30 17 1 17 18
M  V30 18 1 17 19
M  V30 19 1 18 20
M  V30 20 1 19 21
M  V30 21 1 6 8
M  V30 22 1 20 21
M  V30 END BOND
M  V30 END CTAB
M  END
>  <Ligand InChI>
InChI=1S/C14H19ClN2O3S/c1-17(10-14(18)16-12-6-2-3-7-12)21(19,20)13-8-4-5-11(15)9-13/h4-5,8-9,12H,2-3,6-7,10H2,1H3,(H,16,18)

>  <Ligand InChI Key>
AQPUOWMWVSBUSI-UHFFFAOYSA-N

>  <BindingDB MonomerID>
50495212

>  <Target Name Assigned by Curator or DataSource>
3C-like proteinase (3CL-PRO)

>  <Target Source Organism According to Curator or DataSource>
Human SARS coronavirus

>  <IC50 (nM)>
940

>  <PMID>
24332657

>  <Ligand HET ID in PDB>


>  <PDB ID(s) for Ligand-Target Complex>


>  <PubChem CID>


>  <PubChem SID>


>  <ChEMBL ID of Ligand>


>  <DrugBank ID of Ligand>


>  <ZINC ID of Ligand>


>  <PDB ID(s) of Target Chain>
1Q2W,1QZ8,1UJ1,1UK2,1UK3,1UK4,1UW7,1WOF,1Z1I,2A5A,2A5I,2A5K,2ACF,2AHM,2ALV,2AMD,2AMQ,2BX3,2BX4,2C3S,2D2D,2DUC,2FAV,2FE8,2FYG,2G9T,2GA6,2GDT,2GRI,2GT7,2GT8,2GTB,2GX4,2GZ7,2GZ8,2GZ9,2H2Z,2HOB,2HSX,2IDY,2JZF,2K7X,2K87,2KAF,2LIZ,2OP9,2OZK,2RNK,2V6N,2VJ1,2XYQ,2XYR,2XYV,2Z3C,2Z3D,2Z3E,2Z94,2Z9G,2Z9J,2Z9K,2Z9L,2ZU4,2ZU5,3D62,3E91,3E9S,3EA7,3EA8,3EBN,3IWM,3M3V,3MJ5,3R24,3SN8,3SNA,3SNB,3SNC,3SND,3SNE,3SZN,3TIT,3TIU,3TNS,3TNT,3V3M,3VB3,3VB4,3VB5,3VB6,3VB7,4MDS,4MM3,4OVZ,4OW0,5C8S,5C8T,5C8U,5F22,5N19,5N5O,5NFY,5TL6,5TL7,5Y3E,5Y3Q,6JYT,6LNQ,6LNY,6LO0,6NUR,6NUS,6W2A,6W79,6WCO,6XHL,6XHN,6XHO,6XMK,6XOA,7C2K

>  <Smiles>
CN(CC(NC1CCCC1)=O)S(c1cccc(Cl)c1)(=O)=O

$$$$
50495206
Actelion Java MolfileCreator 2.0

  0  0  0  0  0  0              0 V3000
M  V30 BEGIN CTAB
M  V30 COUNTS 19 20 0 0 0
M  V30 BEGIN ATOM
M  V30 1 Cl 0.0 0.0 0.0 0
M  V30 2 C -1.1246 -0.9944 0.0 0
M  V30 3 S -2.6044 -0.6747 0.0 0
M  V30 4 C -0.9825 -2.4742 0.0 0
M  V30 5 C -3.3739 -1.9651 0.0 0
M  V30 6 C -2.3676 -3.0779 0.0 0
M  V30 7 C 0.3077 -3.22 0.0 0
M  V30 8 Cl -4.8773 -2.1072 0.0 0
M  V30 9 S 1.5981 -2.4505 0.0 0
M  V30 10 C 2.8885 -3.1963 0.0 0
M  V30 11 S 2.8767 -4.6879 0.0 0
M  V30 12 N 4.1789 -2.4268 0.0 0
M  V30 13 C 5.4693 -3.1726 0.0 0
M  V30 14 C 6.7596 -2.4031 0.0 0
M  V30 15 C 8.05 -3.1489 0.0 0
M  V30 16 C 6.7478 -0.8878 0.0 0
M  V30 17 N 9.3404 -2.3795 0.0 0
M  V30 18 C 8.0382 -0.1302 0.0 0
M  V30 19 C 9.3285 -0.8641 0.0 0
M  V30 END ATOM
M  V30 BEGIN BOND
M  V30 1 1 1 2
M  V30 2 1 2 3
M  V30 3 2 2 4
M  V30 4 1 3 5
M  V30 5 1 4 6
M  V30 6 1 4 7
M  V30 7 1 5 8
M  V30 8 1 7 9
M  V30 9 1 9 10
M  V30 10 2 10 11
M  V30 11 1 10 12
M  V30 12 1 12 13
M  V30 13 1 13 14
M  V30 14 2 14 15
M  V30 15 1 14 16
M  V30 16 1 15 17
M  V30 17 2 16 18
M  V30 18 2 17 19
M  V30 19 2 5 6
M  V30 20 1 18 19
M  V30 END BOND
M  V30 END CTAB
M  END
>  <Ligand InChI>
InChI=1S/C12H10Cl2N2S3/c13-10-4-9(11(14)19-10)7-18-12(17)16-6-8-2-1-3-15-5-8/h1-5H,6-7H2,(H,16,17)

>  <Ligand InChI Key>
DGYDYUNBWSVWEX-UHFFFAOYSA-N

>  <BindingDB MonomerID>
50495206

>  <Target Name Assigned by Curator or DataSource>
3C-like proteinase (3CL-PRO)

>  <Target Source Organism According to Curator or DataSource>
Human SARS coronavirus

>  <IC50 (nM)>
160

>  <PMID>
24332657

>  <Ligand HET ID in PDB>


>  <PDB ID(s) for Ligand-Target Complex>


>  <PubChem CID>


>  <PubChem SID>


>  <ChEMBL ID of Ligand>


>  <DrugBank ID of Ligand>


>  <ZINC ID of Ligand>


>  <PDB ID(s) of Target Chain>
1Q2W,1QZ8,1UJ1,1UK2,1UK3,1UK4,1UW7,1WOF,1Z1I,2A5A,2A5I,2A5K,2ACF,2AHM,2ALV,2AMD,2AMQ,2BX3,2BX4,2C3S,2D2D,2DUC,2FAV,2FE8,2FYG,2G9T,2GA6,2GDT,2GRI,2GT7,2GT8,2GTB,2GX4,2GZ7,2GZ8,2GZ9,2H2Z,2HOB,2HSX,2IDY,2JZF,2K7X,2K87,2KAF,2LIZ,2OP9,2OZK,2RNK,2V6N,2VJ1,2XYQ,2XYR,2XYV,2Z3C,2Z3D,2Z3E,2Z94,2Z9G,2Z9J,2Z9K,2Z9L,2ZU4,2ZU5,3D62,3E91,3E9S,3EA7,3EA8,3EBN,3IWM,3M3V,3MJ5,3R24,3SN8,3SNA,3SNB,3SNC,3SND,3SNE,3SZN,3TIT,3TIU,3TNS,3TNT,3V3M,3VB3,3VB4,3VB5,3VB6,3VB7,4MDS,4MM3,4OVZ,4OW0,5C8S,5C8T,5C8U,5F22,5N19,5N5O,5NFY,5TL6,5TL7,5Y3E,5Y3Q,6JYT,6LNQ,6LNY,6LO0,6NUR,6NUS,6W2A,6W79,6WCO,6XHL,6XHN,6XHO,6XMK,6XOA,7C2K

>  <Smiles>
S=C(NCc1cnccc1)SCc(cc(s1)Cl)c1Cl

$$$$
50489171
Actelion Java MolfileCreator 2.0

  0  0  0  0  0  0              0 V3000
M  V30 BEGIN CTAB
M  V30 COUNTS 39 39 0 0 0
M  V30 BEGIN ATOM
M  V30 1 O 0.0 0.0 0.0 0
M  V30 2 C -0.0237 -1.4828 0.0 0
M  V30 3 O -1.3405 -2.2183 0.0 0
M  V30 4 N 1.2574 -2.2302 0.0 0
M  V30 5 C -2.6454 -1.4472 0.0 0
M  V30 6 C 2.5505 -1.471 0.0 0 CFG=2
M  V30 7 C -3.9622 -2.1827 0.0 0
M  V30 8 C 3.8435 -2.2183 0.0 0
M  V30 9 C 2.5386 0.0474 0.0 0
M  V30 10 C -5.2671 -1.4116 0.0 0
M  V30 11 C -3.974 -3.6656 0.0 0
M  V30 12 O 3.8198 -3.7131 0.0 0
M  V30 13 N 5.1366 -1.4591 0.0 0
M  V30 14 C -6.5839 -2.1471 0.0 0
M  V30 15 C -5.279 -4.4011 0.0 0
M  V30 16 C 6.4297 -2.2065 0.0 0 CFG=2
M  V30 17 C -6.6076 -3.6419 0.0 0
M  V30 18 C 7.7227 -1.4472 0.0 0
M  V30 19 C 6.4178 -3.7012 0.0 0
M  V30 20 O 7.7109 0.0711 0.0 0
M  V30 21 N 9.0158 -2.1946 0.0 0
M  V30 22 C 7.7109 -4.4486 0.0 0
M  V30 23 C 5.101 -4.4367 0.0 0
M  V30 24 C 10.3089 -1.4354 0.0 0 CFG=2
M  V30 25 C 11.6019 -2.1827 0.0 0
M  V30 26 C 10.3089 0.083 0.0 0
M  V30 27 O 11.5901 -3.6775 0.0 0
M  V30 28 N 12.895 -1.4235 0.0 0
M  V30 29 C 11.5901 0.8422 0.0 0
M  V30 30 C 14.188 -2.1709 0.0 0 CFG=2
M  V30 31 C 11.5901 2.3607 0.0 0
M  V30 32 C 12.8831 0.0949 0.0 0
M  V30 33 C 15.4692 -1.4116 0.0 0
M  V30 34 C 14.1643 -3.6656 0.0 0
M  V30 35 N 16.7504 -0.6524 0.0 0
M  V30 36 C 15.4574 -4.413 0.0 0
M  V30 37 C 15.4455 -5.9077 0.0 0
M  V30 38 O 16.7386 -6.6551 0.0 0
M  V30 39 N 14.1287 -6.6432 0.0 0
M  V30 END ATOM
M  V30 BEGIN BOND
M  V30 1 2 1 2
M  V30 2 1 2 3
M  V30 3 1 2 4
M  V30 4 1 3 5
M  V30 5 1 6 4 CFG=1
M  V30 6 1 5 7
M  V30 7 1 6 8
M  V30 8 1 6 9
M  V30 9 2 7 10
M  V30 10 1 7 11
M  V30 11 2 8 12
M  V30 12 1 8 13
M  V30 13 1 10 14
M  V30 14 2 11 15
M  V30 15 1 16 13 CFG=3
M  V30 16 2 14 17
M  V30 17 1 16 18
M  V30 18 1 16 19
M  V30 19 2 18 20
M  V30 20 1 18 21
M  V30 21 1 19 22
M  V30 22 1 19 23
M  V30 23 1 24 21 CFG=1
M  V30 24 1 24 25
M  V30 25 1 24 26
M  V30 26 2 25 27
M  V30 27 1 25 28
M  V30 28 1 26 29
M  V30 29 1 30 28 CFG=3
M  V30 30 1 29 31
M  V30 31 1 29 32
M  V30 32 1 30 33
M  V30 33 1 30 34
M  V30 34 3 33 35
M  V30 35 1 34 36
M  V30 36 1 36 37
M  V30 37 2 37 38
M  V30 38 1 37 39
M  V30 39 1 15 17
M  V30 END BOND
M  V30 BEGIN COLLECTION
M  V30 MDLV30/STERAC1 ATOMS=(4 6 16 24 30)
M  V30 END COLLECTION
M  V30 END CTAB
M  END
>  <Ligand InChI>
InChI=1S/C27H40N6O6/c1-16(2)13-21(25(36)31-20(14-28)11-12-22(29)34)32-26(37)23(17(3)4)33-24(35)18(5)30-27(38)39-15-19-9-7-6-8-10-19/h6-10,16-18,20-21,23H,11-13,15H2,1-5H3,(H2,29,34)(H,30,38)(H,31,36)(H,32,37)(H,33,35)/t18-,20-,21-,23-/m0/s1

>  <Ligand InChI Key>
FIKWFNMSLXSBKM-ROQCDXFCSA-N

>  <BindingDB MonomerID>
50489171

>  <Target Name Assigned by Curator or DataSource>
3C-like proteinase (3CL-PRO)

>  <Target Source Organism According to Curator or DataSource>
Human SARS coronavirus

>  <IC50 (nM)>
4600

>  <PMID>
23202846

>  <Ligand HET ID in PDB>


>  <PDB ID(s) for Ligand-Target Complex>


>  <PubChem CID>


>  <PubChem SID>


>  <ChEMBL ID of Ligand>


>  <DrugBank ID of Ligand>


>  <ZINC ID of Ligand>


>  <PDB ID(s) of Target Chain>
1Q2W,1QZ8,1UJ1,1UK2,1UK3,1UK4,1UW7,1WOF,1Z1I,2A5A,2A5I,2A5K,2ACF,2AHM,2ALV,2AMD,2AMQ,2BX3,2BX4,2C3S,2D2D,2DUC,2FAV,2FE8,2FYG,2G9T,2GA6,2GDT,2GRI,2GT7,2GT8,2GTB,2GX4,2GZ7,2GZ8,2GZ9,2H2Z,2HOB,2HSX,2IDY,2JZF,2K7X,2K87,2KAF,2LIZ,2OP9,2OZK,2RNK,2V6N,2VJ1,2XYQ,2XYR,2XYV,2Z3C,2Z3D,2Z3E,2Z94,2Z9G,2Z9J,2Z9K,2Z9L,2ZU4,2ZU5,3D62,3E91,3E9S,3EA7,3EA8,3EBN,3IWM,3M3V,3MJ5,3R24,3SN8,3SNA,3SNB,3SNC,3SND,3SNE,3SZN,3TIT,3TIU,3TNS,3TNT,3V3M,3VB3,3VB4,3VB5,3VB6,3VB7,4MDS,4MM3,4OVZ,4OW0,5C8S,5C8T,5C8U,5F22,5N19,5N5O,5NFY,5TL6,5TL7,5Y3E,5Y3Q,6JYT,6LNQ,6LNY,6LO0,6NUR,6NUS,6W2A,6W79,6WCO,6XHL,6XHN,6XHO,6XMK,6XOA,7C2K

>  <Smiles>
CC(C)C[C@@H](C(N[C@@H](CCC(N)=O)C#N)=O)NC([C@H](C(C)C)NC([C@H](C)NC(OCc1ccccc1)=O)=O)=O

$$$$
11292
Actelion Java MolfileCreator 2.0

  0  0  0  0  0  0              0 V3000
M  V30 BEGIN CTAB
M  V30 COUNTS 28 29 0 0 0
M  V30 BEGIN ATOM
M  V30 1 Cl 0.0 0.0 0.0 0
M  V30 2 C -0.0118 -1.4928 0.0 0
M  V30 3 C 1.2795 -2.2274 0.0 0
M  V30 4 C -1.3269 -2.2274 0.0 0
M  V30 5 S 2.571 -1.4691 0.0 0
M  V30 6 C 1.2677 -3.7202 0.0 0
M  V30 7 C -1.3388 -3.7202 0.0 0
M  V30 8 O 3.3174 -0.154 0.0 0
M  V30 9 O 1.4928 -0.3909 0.0 0
M  V30 10 C 4.0638 -1.4572 0.0 0
M  V30 11 C -0.0473 -4.4548 0.0 0
M  V30 12 Cl -2.6539 -4.4548 0.0 0
M  V30 13 C 4.751 -2.7724 0.0 0
M  V30 14 C 4.8576 -0.1777 0.0 0
M  V30 15 C -0.0592 -5.9476 0.0 0
M  V30 16 N 3.9335 -4.0282 0.0 0 CHG=1
M  V30 17 C 6.2438 -2.8198 0.0 0
M  V30 18 N 4.1467 1.161 0.0 0 CHG=1
M  V30 19 C 6.3504 -0.2251 0.0 0
M  V30 20 O 2.4169 -3.9572 0.0 0
M  V30 21 O 4.6206 -5.3434 0.0 0 CHG=-1
M  V30 22 C 7.0376 -1.5402 0.0 0
M  V30 23 O 2.642 1.398 0.0 0
M  V30 24 O 5.2012 2.2392 0.0 0 CHG=-1
M  V30 25 C 8.5305 -1.5876 0.0 0
M  V30 26 F 8.5423 -0.071 0.0 0
M  V30 27 F 10.0233 -1.5757 0.0 0
M  V30 28 F 8.4949 -3.0804 0.0 0
M  V30 END ATOM
M  V30 BEGIN BOND
M  V30 1 1 1 2
M  V30 2 2 2 3
M  V30 3 1 2 4
M  V30 4 1 3 5
M  V30 5 1 3 6
M  V30 6 2 4 7
M  V30 7 2 5 8
M  V30 8 2 5 9
M  V30 9 1 5 10
M  V30 10 2 6 11
M  V30 11 1 7 12
M  V30 12 2 10 13
M  V30 13 1 10 14
M  V30 14 1 11 15
M  V30 15 1 13 16
M  V30 16 1 13 17
M  V30 17 1 14 18
M  V30 18 2 14 19
M  V30 19 2 16 20
M  V30 20 1 16 21
M  V30 21 2 17 22
M  V30 22 2 18 23
M  V30 23 1 18 24
M  V30 24 1 22 25
M  V30 25 1 25 26
M  V30 26 1 25 27
M  V30 27 1 25 28
M  V30 28 1 7 11
M  V30 29 1 19 22
M  V30 END BOND
M  V30 END CTAB
M  END
>  <Ligand InChI>
InChI=1S/C14H7Cl2F3N2O6S/c1-6-2-12(9(16)5-8(6)15)28(26,27)13-10(20(22)23)3-7(14(17,18)19)4-11(13)21(24)25/h2-5H,1H3

>  <Ligand InChI Key>
INAZPZCJNPPHGV-UHFFFAOYSA-N

>  <BindingDB MonomerID>
11292

>  <Target Name Assigned by Curator or DataSource>
3C-like proteinase (3CL-PRO)

>  <Target Source Organism According to Curator or DataSource>
Human SARS coronavirus

>  <IC50 (nM)>
300

>  <PMID>
16913704

>  <Ligand HET ID in PDB>
D3F

>  <PDB ID(s) for Ligand-Target Complex>
2GZ7

>  <PubChem CID>
2799606

>  <PubChem SID>
46511839

>  <ChEMBL ID of Ligand>


>  <DrugBank ID of Ligand>
DB07620

>  <ZINC ID of Ligand>
ZINC08626709

>  <PDB ID(s) of Target Chain>
1Q2W,1QZ8,1UJ1,1UK2,1UK3,1UK4,1UW7,1WOF,1Z1I,2A5A,2A5I,2A5K,2ACF,2AHM,2ALV,2AMD,2AMQ,2BX3,2BX4,2C3S,2D2D,2DUC,2FAV,2FE8,2FYG,2G9T,2GA6,2GDT,2GRI,2GT7,2GT8,2GTB,2GX4,2GZ7,2GZ8,2GZ9,2H2Z,2HOB,2HSX,2IDY,2JZF,2K7X,2K87,2KAF,2LIZ,2OP9,2OZK,2RNK,2V6N,2VJ1,2XYQ,2XYR,2XYV,2Z3C,2Z3D,2Z3E,2Z94,2Z9G,2Z9J,2Z9K,2Z9L,2ZU4,2ZU5,3D62,3E91,3E9S,3EA7,3EA8,3EBN,3IWM,3M3V,3MJ5,3R24,3SN8,3SNA,3SNB,3SNC,3SND,3SNE,3SZN,3TIT,3TIU,3TNS,3TNT,3V3M,3VB3,3VB4,3VB5,3VB6,3VB7,4MDS,4MM3,4OVZ,4OW0,5C8S,5C8T,5C8U,5F22,5N19,5N5O,5NFY,5TL6,5TL7,5Y3E,5Y3Q,6JYT,6LNQ,6LNY,6LO0,6NUR,6NUS,6WCO,6XHL,6XHN,6XHO,6XMK,6XOA,7C2K

>  <Smiles>
Cc(c(Cl)c1)cc(S(c(c([N+]([O-])=O)cc(C(F)(F)F)c2)c2[N+]([O-])=O)(=O)=O)c1Cl

$$$$
11293
Actelion Java MolfileCreator 2.0

  0  0  0  0  0  0              0 V3000
M  V30 BEGIN CTAB
M  V30 COUNTS 31 32 0 0 0
M  V30 BEGIN ATOM
M  V30 1 Cl 0.0 0.0 0.0 0
M  V30 2 C -0.0118 -1.4946 0.0 0
M  V30 3 Cl -1.3285 -2.23 0.0 0
M  V30 4 C 1.281 -2.23 0.0 0
M  V30 5 Cl 1.2692 -3.7246 0.0 0
M  V30 6 C 2.574 -1.4708 0.0 0
M  V30 7 O 2.5621 0.0474 0.0 0
M  V30 8 O 3.867 -2.2063 0.0 0
M  V30 9 C 5.1599 -1.4471 0.0 0
M  V30 10 C 5.1481 0.0711 0.0 0
M  V30 11 C 6.4529 -2.1944 0.0 0
M  V30 12 C 6.441 0.8303 0.0 0
M  V30 13 C 7.7458 -1.4234 0.0 0
M  V30 14 C 7.734 0.0948 0.0 0
M  V30 15 S 9.0269 0.854 0.0 0
M  V30 16 O 9.4065 2.3249 0.0 0
M  V30 17 O 7.9475 1.9335 0.0 0
M  V30 18 C 10.3199 0.1186 0.0 0
M  V30 19 C 10.308 -1.3759 0.0 0
M  V30 20 C 11.6128 0.8777 0.0 0
M  V30 21 C 11.601 -2.1114 0.0 0
M  V30 22 C 12.9058 0.1423 0.0 0
M  V30 23 C 12.8939 -1.3522 0.0 0
M  V30 24 O 14.1869 -2.0877 0.0 0
M  V30 25 C 15.4798 -1.3285 0.0 0
M  V30 26 O 15.468 0.1897 0.0 0
M  V30 27 C 16.7728 -2.0639 0.0 0
M  V30 28 Cl 16.7609 -3.5585 0.0 0
M  V30 29 C 18.0658 -1.3048 0.0 0
M  V30 30 Cl 18.0539 0.2135 0.0 0
M  V30 31 Cl 19.3587 -2.0402 0.0 0
M  V30 END ATOM
M  V30 BEGIN BOND
M  V30 1 1 1 2
M  V30 2 1 2 3
M  V30 3 2 2 4
M  V30 4 1 4 5
M  V30 5 1 4 6
M  V30 6 2 6 7
M  V30 7 1 6 8
M  V30 8 1 8 9
M  V30 9 2 9 10
M  V30 10 1 9 11
M  V30 11 1 10 12
M  V30 12 2 11 13
M  V30 13 2 12 14
M  V30 14 1 14 15
M  V30 15 2 15 16
M  V30 16 2 15 17
M  V30 17 1 15 18
M  V30 18 2 18 19
M  V30 19 1 18 20
M  V30 20 1 19 21
M  V30 21 2 20 22
M  V30 22 2 21 23
M  V30 23 1 23 24
M  V30 24 1 24 25
M  V30 25 2 25 26
M  V30 26 1 25 27
M  V30 27 1 27 28
M  V30 28 2 27 29
M  V30 29 1 29 30
M  V30 30 1 29 31
M  V30 31 1 13 14
M  V30 32 1 22 23
M  V30 END BOND
M  V30 END CTAB
M  END
>  <Ligand InChI>
InChI=1S/C18H8Cl6O6S/c19-13(15(21)22)17(25)29-9-1-5-11(6-2-9)31(27,28)12-7-3-10(4-8-12)30-18(26)14(20)16(23)24/h1-8H

>  <Ligand InChI Key>
HXYPMMAPDRFFTM-UHFFFAOYSA-N

>  <BindingDB MonomerID>
11293

>  <Target Name Assigned by Curator or DataSource>
3C-like proteinase (3CL-PRO)

>  <Target Source Organism According to Curator or DataSource>
Human SARS coronavirus

>  <IC50 (nM)>
900

>  <PMID>
16913704

>  <Ligand HET ID in PDB>


>  <PDB ID(s) for Ligand-Target Complex>


>  <PubChem CID>
2774892

>  <PubChem SID>
46511840

>  <ChEMBL ID of Ligand>


>  <DrugBank ID of Ligand>


>  <ZINC ID of Ligand>
ZINC02155429

>  <PDB ID(s) of Target Chain>
1Q2W,1QZ8,1UJ1,1UK2,1UK3,1UK4,1UW7,1WOF,1Z1I,2A5A,2A5I,2A5K,2ACF,2AHM,2ALV,2AMD,2AMQ,2BX3,2BX4,2C3S,2D2D,2DUC,2FAV,2FE8,2FYG,2G9T,2GA6,2GDT,2GRI,2GT7,2GT8,2GTB,2GX4,2GZ7,2GZ8,2GZ9,2H2Z,2HOB,2HSX,2IDY,2JZF,2K7X,2K87,2KAF,2LIZ,2OP9,2OZK,2RNK,2V6N,2VJ1,2XYQ,2XYR,2XYV,2Z3C,2Z3D,2Z3E,2Z94,2Z9G,2Z9J,2Z9K,2Z9L,2ZU4,2ZU5,3D62,3E91,3E9S,3EA7,3EA8,3EBN,3IWM,3M3V,3MJ5,3R24,3SN8,3SNA,3SNB,3SNC,3SND,3SNE,3SZN,3TIT,3TIU,3TNS,3TNT,3V3M,3VB3,3VB4,3VB5,3VB6,3VB7,4MDS,4MM3,4OVZ,4OW0,5C8S,5C8T,5C8U,5F22,5N19,5N5O,5NFY,5TL6,5TL7,5Y3E,5Y3Q,6JYT,6LNQ,6LNY,6LO0,6NUR,6NUS,6WCO,6XHL,6XHN,6XHO,6XMK,6XOA,7C2K

>  <Smiles>
O=C(C(Cl)=C(Cl)Cl)Oc(cc1)ccc1S(c(cc1)ccc1OC(C(Cl)=C(Cl)Cl)=O)(=O)=O

$$$$
11304
Actelion Java MolfileCreator 2.0

  0  0  0  0  0  0              0 V3000
M  V30 BEGIN CTAB
M  V30 COUNTS 25 27 0 0 0
M  V30 BEGIN ATOM
M  V30 1 S 0.0 0.0 0.0 0
M  V30 2 C 1.4166 -0.4485 0.0 0
M  V30 3 C -1.1214 -0.9916 0.0 0
M  V30 4 N 1.877 -1.8652 0.0 0
M  V30 5 N 2.6089 0.4485 0.0 0
M  V30 6 O -0.8263 -2.4436 0.0 0
M  V30 7 C -2.5617 -0.5194 0.0 0
M  V30 8 N 3.3644 -1.8416 0.0 0
M  V30 9 C 3.813 -0.4131 0.0 0
M  V30 10 O -3.7894 -1.393 0.0 0
M  V30 11 C -3.0339 0.9208 0.0 0
M  V30 12 C 5.2297 0.0708 0.0 0
M  V30 13 C -5.0172 -0.4958 0.0 0
M  V30 14 C -4.545 0.9326 0.0 0
M  V30 15 F 5.5248 1.5464 0.0 0
M  V30 16 F 6.6463 0.5548 0.0 0
M  V30 17 F 6.3394 -0.909 0.0 0
M  V30 18 C -6.4574 -0.9444 0.0 0
M  V30 19 C -7.9213 -1.3221 0.0 0
M  V30 20 C -9.3851 -1.6999 0.0 0
M  V30 21 C -10.6955 -0.9444 0.0 0
M  V30 22 C -9.3969 -3.1874 0.0 0
M  V30 23 C -12.0059 -1.6763 0.0 0
M  V30 24 C -10.7073 -3.9193 0.0 0
M  V30 25 C -12.0177 -3.1638 0.0 0
M  V30 END ATOM
M  V30 BEGIN BOND
M  V30 1 1 1 2
M  V30 2 1 1 3
M  V30 3 2 2 4
M  V30 4 1 2 5
M  V30 5 2 3 6
M  V30 6 1 3 7
M  V30 7 1 4 8
M  V30 8 1 5 9
M  V30 9 1 7 10
M  V30 10 2 7 11
M  V30 11 1 9 12
M  V30 12 1 10 13
M  V30 13 1 11 14
M  V30 14 1 12 15
M  V30 15 1 12 16
M  V30 16 1 12 17
M  V30 17 1 13 18
M  V30 18 3 18 19
M  V30 19 1 19 20
M  V30 20 2 20 21
M  V30 21 1 20 22
M  V30 22 1 21 23
M  V30 23 2 22 24
M  V30 24 2 23 25
M  V30 25 2 8 9
M  V30 26 2 13 14
M  V30 27 1 24 25
M  V30 END BOND
M  V30 END CTAB
M  END
>  <Ligand InChI>
InChI=1S/C16H8F3N3O2S/c17-16(18,19)14-20-15(22-21-14)25-13(23)12-9-8-11(24-12)7-6-10-4-2-1-3-5-10/h1-5,8-9H,(H,20,21,22)

>  <Ligand InChI Key>
VNGWUVBXUIDQTK-UHFFFAOYSA-N

>  <BindingDB MonomerID>
11304

>  <Target Name Assigned by Curator or DataSource>
3C-like proteinase (3CL-PRO)

>  <Target Source Organism According to Curator or DataSource>
Human SARS coronavirus

>  <IC50 (nM)>
3000

>  <PMID>
16913704

>  <Ligand HET ID in PDB>
F3F

>  <PDB ID(s) for Ligand-Target Complex>
2GZ8

>  <PubChem CID>
2822496

>  <PubChem SID>
46511851

>  <ChEMBL ID of Ligand>


>  <DrugBank ID of Ligand>
DB07743

>  <ZINC ID of Ligand>
ZINC01039846

>  <PDB ID(s) of Target Chain>
1Q2W,1QZ8,1UJ1,1UK2,1UK3,1UK4,1UW7,1WOF,1Z1I,2A5A,2A5I,2A5K,2ACF,2AHM,2ALV,2AMD,2AMQ,2BX3,2BX4,2C3S,2D2D,2DUC,2FAV,2FE8,2FYG,2G9T,2GA6,2GDT,2GRI,2GT7,2GT8,2GTB,2GX4,2GZ7,2GZ8,2GZ9,2H2Z,2HOB,2HSX,2IDY,2JZF,2K7X,2K87,2KAF,2LIZ,2OP9,2OZK,2RNK,2V6N,2VJ1,2XYQ,2XYR,2XYV,2Z3C,2Z3D,2Z3E,2Z94,2Z9G,2Z9J,2Z9K,2Z9L,2ZU4,2ZU5,3D62,3E91,3E9S,3EA7,3EA8,3EBN,3IWM,3M3V,3MJ5,3R24,3SN8,3SNA,3SNB,3SNC,3SND,3SNE,3SZN,3TIT,3TIU,3TNS,3TNT,3V3M,3VB3,3VB4,3VB5,3VB6,3VB7,4MDS,4MM3,4OVZ,4OW0,5C8S,5C8T,5C8U,5F22,5N19,5N5O,5NFY,5TL6,5TL7,5Y3E,5Y3Q,6JYT,6LNQ,6LNY,6LO0,6NUR,6NUS,6WCO,6XHL,6XHN,6XHO,6XMK,6XOA,7C2K

>  <Smiles>
O=C(c1ccc(C#Cc2ccccc2)o1)Sc1nnc(C(F)(F)F)[nH]1

$$$$
246524
Actelion Java MolfileCreator 2.0

  0  0  0  0  0  0              0 V3000
M  V30 BEGIN CTAB
M  V30 COUNTS 25 28 0 0 0
M  V30 BEGIN ATOM
M  V30 1 O 0.0 0.0 0.0 0
M  V30 2 C 1.2902 -0.7457 0.0 0
M  V30 3 C -1.3139 -0.7457 0.0 0
M  V30 4 O 2.5804 0.0236 0.0 0
M  V30 5 C 1.2784 -2.2372 0.0 0
M  V30 6 C -1.3257 -2.2372 0.0 0
M  V30 7 C -2.6278 0.0236 0.0 0
M  V30 8 C -0.0355 -2.9711 0.0 0
M  V30 9 C 2.3792 -3.2315 0.0 0
M  V30 10 C -2.6396 -2.9711 0.0 0
M  V30 11 C -3.9417 -0.722 0.0 0
M  V30 12 O 0.2604 -4.427 0.0 0
M  V30 13 C 1.7518 -4.5927 0.0 0
M  V30 14 C 3.8588 -3.0658 0.0 0
M  V30 15 C -3.9535 -2.2135 0.0 0
M  V30 16 O -5.2556 0.0473 0.0 0
M  V30 17 C 2.6278 -5.8001 0.0 0
M  V30 18 C 4.7348 -4.2731 0.0 0
M  V30 19 C -5.2674 -2.9474 0.0 0
M  V30 20 C 4.1074 -5.6344 0.0 0
M  V30 21 C -6.5814 -2.1898 0.0 0
M  V30 22 O 4.9834 -6.8418 0.0 0
M  V30 23 C -7.8953 -2.9237 0.0 0
M  V30 24 C -9.2092 -2.1661 0.0 0
M  V30 25 C -7.9071 -4.4152 0.0 0
M  V30 END ATOM
M  V30 BEGIN BOND
M  V30 1 1 1 2
M  V30 2 2 1 3
M  V30 3 2 2 4
M  V30 4 1 2 5
M  V30 5 1 3 6
M  V30 6 1 3 7
M  V30 7 1 5 8
M  V30 8 2 5 9
M  V30 9 1 6 10
M  V30 10 2 7 11
M  V30 11 1 8 12
M  V30 12 1 9 13
M  V30 13 1 9 14
M  V30 14 2 10 15
M  V30 15 1 11 16
M  V30 16 2 13 17
M  V30 17 2 14 18
M  V30 18 1 15 19
M  V30 19 1 17 20
M  V30 20 1 19 21
M  V30 21 1 20 22
M  V30 22 2 21 23
M  V30 23 1 23 24
M  V30 24 1 23 25
M  V30 25 2 6 8
M  V30 26 1 11 15
M  V30 27 1 12 13
M  V30 28 1 18 20
M  V30 END BOND
M  V30 END CTAB
M  END
>  <Ligand InChI>
InChI=1S/C20H16O5/c1-10(2)3-4-11-7-14-17(9-15(11)22)25-20(23)18-13-6-5-12(21)8-16(13)24-19(14)18/h3,5-9,21-22H,4H2,1-2H3

>  <Ligand InChI Key>
YABIJLLNNFURIJ-UHFFFAOYSA-N

>  <BindingDB MonomerID>
246524

>  <Target Name Assigned by Curator or DataSource>
Papain-like protease (PLpro)

>  <Target Source Organism According to Curator or DataSource>


>  <IC50 (nM)>
4.2e+3

>  <PMID>
23323951

>  <Ligand HET ID in PDB>


>  <PDB ID(s) for Ligand-Target Complex>


>  <PubChem CID>
5281806

>  <PubChem SID>
341104311

>  <ChEMBL ID of Ligand>


>  <DrugBank ID of Ligand>


>  <ZINC ID of Ligand>


>  <PDB ID(s) of Target Chain>
1Q2W,1QZ8,1UJ1,1UK2,1UK3,1UK4,1UW7,1WOF,1Z1I,2A5A,2A5I,2A5K,2ACF,2AHM,2ALV,2AMD,2AMQ,2BX3,2BX4,2C3S,2D2D,2DUC,2FAV,2FE8,2FYG,2G9T,2GA6,2GDT,2GRI,2GT7,2GT8,2GTB,2GX4,2GZ7,2GZ8,2GZ9,2H2Z,2HOB,2HSX,2IDY,2JZF,2K7X,2K87,2KAF,2LIZ,2OP9,2RNK,2V6N,2VJ1,2XYQ,2XYR,2XYV,2Z3C,2Z3D,2Z3E,2Z94,2Z9G,2Z9J,2Z9K,2Z9L,2ZU4,2ZU5,3D62,3E91,3E9S,3EA7,3EA8,3EBN,3IWM,3M3V,3MJ5,3R24,3SN8,3SNA,3SNB,3SNC,3SND,3SNE,3SZN,3TIT,3TIU,3TNS,3TNT,3V3M,3VB3,3VB4,3VB5,3VB6,3VB7,4MDS,4MM3,4OVZ,4OW0,5C8S,5C8T,5C8U,5F22,5N19,5N5O,5NFY,5TL6,5TL7,5Y3E,5Y3Q,6LNQ,6LNY,6LO0,6NUR,6NUS,6WCO,6XHL,6XHN,6XHO,6XMK,6XOA

>  <Smiles>
CC(C)=CCC(C(O)=CC1=OC(C2=C3C=C4)=O)=CC1=C2OC3=CC4O

$$$$
50167307
Actelion Java MolfileCreator 2.0

  0  0  0  0  0  0              0 V3000
M  V30 BEGIN CTAB
M  V30 COUNTS 22 25 0 0 0
M  V30 BEGIN ATOM
M  V30 1 I 0.0 0.0 0.0 0
M  V30 2 C 1.2929 -0.725 0.0 0
M  V30 3 C 2.5858 0.0241 0.0 0
M  V30 4 C 1.2808 -2.2475 0.0 0
M  V30 5 C 3.8788 -0.7008 0.0 0
M  V30 6 C 2.5737 -2.9967 0.0 0
M  V30 7 C 5.3046 -0.2295 0.0 0
M  V30 8 C 3.8667 -2.2112 0.0 0
M  V30 9 O 5.7517 1.2204 0.0 0
M  V30 10 C 6.1867 -1.45 0.0 0
M  V30 11 N 5.2925 -2.6704 0.0 0
M  V30 12 O 7.6851 -1.4379 0.0 0
M  V30 13 C 5.7517 -4.0963 0.0 0
M  V30 14 C 7.2138 -4.3984 0.0 0
M  V30 15 S 8.3255 -3.3592 0.0 0
M  V30 16 C 7.818 -5.7638 0.0 0
M  V30 17 C 9.6185 -4.1084 0.0 0
M  V30 18 C 9.2922 -5.5705 0.0 0
M  V30 19 C 11.0322 -3.625 0.0 0
M  V30 20 C 10.4039 -6.5613 0.0 0
M  V30 21 C 12.1439 -4.6159 0.0 0
M  V30 22 C 11.8297 -6.0901 0.0 0
M  V30 END ATOM
M  V30 BEGIN BOND
M  V30 1 1 1 2
M  V30 2 2 2 3
M  V30 3 1 2 4
M  V30 4 1 3 5
M  V30 5 2 4 6
M  V30 6 1 5 7
M  V30 7 2 5 8
M  V30 8 2 7 9
M  V30 9 1 7 10
M  V30 10 1 8 11
M  V30 11 2 10 12
M  V30 12 1 11 13
M  V30 13 1 13 14
M  V30 14 1 14 15
M  V30 15 2 14 16
M  V30 16 1 15 17
M  V30 17 1 16 18
M  V30 18 1 17 19
M  V30 19 1 18 20
M  V30 20 2 19 21
M  V30 21 2 20 22
M  V30 22 1 6 8
M  V30 23 1 10 11
M  V30 24 2 17 18
M  V30 25 1 21 22
M  V30 END BOND
M  V30 END CTAB
M  END
>  <Ligand InChI>
InChI=1S/C17H10INO2S/c18-11-5-6-14-13(8-11)16(20)17(21)19(14)9-12-7-10-3-1-2-4-15(10)22-12/h1-8H,9H2

>  <Ligand InChI Key>
MAYSJMBSILUGEG-UHFFFAOYSA-N

>  <BindingDB MonomerID>
50167307

>  <Target Name Assigned by Curator or DataSource>
Papain-like protease (PLpro)

>  <Target Source Organism According to Curator or DataSource>


>  <IC50 (nM)>
950

>  <PMID>
15896959

>  <Ligand HET ID in PDB>


>  <PDB ID(s) for Ligand-Target Complex>


>  <PubChem CID>
11796320

>  <PubChem SID>
104052581

>  <ChEMBL ID of Ligand>
CHEMBL190743

>  <DrugBank ID of Ligand>


>  <ZINC ID of Ligand>
ZINC28466529

>  <PDB ID(s) of Target Chain>
1Q2W,1QZ8,1UJ1,1UK2,1UK3,1UK4,1UW7,1WOF,1Z1I,2A5A,2A5I,2A5K,2ACF,2AHM,2ALV,2AMD,2AMQ,2BX3,2BX4,2C3S,2D2D,2DUC,2FAV,2FE8,2FYG,2G9T,2GA6,2GDT,2GRI,2GT7,2GT8,2GTB,2GX4,2GZ7,2GZ8,2GZ9,2H2Z,2HOB,2HSX,2IDY,2JZF,2K7X,2K87,2KAF,2LIZ,2OP9,2RNK,2V6N,2VJ1,2XYQ,2XYR,2XYV,2Z3C,2Z3D,2Z3E,2Z94,2Z9G,2Z9J,2Z9K,2Z9L,2ZU4,2ZU5,3D62,3E91,3E9S,3EA7,3EA8,3EBN,3IWM,3M3V,3MJ5,3R24,3SN8,3SNA,3SNB,3SNC,3SND,3SNE,3SZN,3TIT,3TIU,3TNS,3TNT,3V3M,3VB3,3VB4,3VB5,3VB6,3VB7,4MDS,4MM3,4OVZ,4OW0,5C8S,5C8T,5C8U,5F22,5N19,5N5O,5NFY,5TL6,5TL7,5Y3E,5Y3Q,6LNQ,6LNY,6LO0,6NUR,6NUS,6WCO,6XHL,6XHN,6XHO,6XMK,6XOA

>  <Smiles>
O=C(c(cc(cc1)I)c1N1Cc2cc(cccc3)c3s2)C1=O

$$$$
50167306
Actelion Java MolfileCreator 2.0

  0  0  0  0  0  0              0 V3000
M  V30 BEGIN CTAB
M  V30 COUNTS 24 27 0 0 0
M  V30 BEGIN ATOM
M  V30 1 S 0.0 0.0 0.0 0
M  V30 2 C 1.289 -0.74 0.0 0
M  V30 3 C -1.1219 -1.0145 0.0 0
M  V30 4 C 0.9548 -2.1961 0.0 0
M  V30 5 C 2.6855 -0.2745 0.0 0
M  V30 6 C -0.5251 -2.3632 0.0 0
M  V30 7 C -2.6019 -0.6803 0.0 0
M  V30 8 C 2.0529 -3.1868 0.0 0
M  V30 9 C 3.7836 -1.2651 0.0 0
M  V30 10 N -3.0793 0.7638 0.0 0
M  V30 11 C 3.4613 -2.7093 0.0 0
M  V30 12 C -2.208 1.9813 0.0 0
M  V30 13 C -4.5116 1.2293 0.0 0
M  V30 14 O -0.7161 1.9932 0.0 0
M  V30 15 C -3.1032 3.2226 0.0 0
M  V30 16 C -5.8246 0.4893 0.0 0
M  V30 17 C -4.5236 2.7452 0.0 0
M  V30 18 O -2.6497 4.6549 0.0 0
M  V30 19 N -5.8246 -1.0145 0.0 0 CHG=1
M  V30 20 C -7.1375 1.2532 0.0 0
M  V30 21 C -5.8365 3.509 0.0 0
M  V30 22 O -4.5355 -1.7545 0.0 0
M  V30 23 O -7.1375 -1.7545 0.0 0 CHG=-1
M  V30 24 C -7.1494 2.769 0.0 0
M  V30 END ATOM
M  V30 BEGIN BOND
M  V30 1 1 1 2
M  V30 2 1 1 3
M  V30 3 2 2 4
M  V30 4 1 2 5
M  V30 5 2 3 6
M  V30 6 1 3 7
M  V30 7 1 4 8
M  V30 8 2 5 9
M  V30 9 1 7 10
M  V30 10 2 8 11
M  V30 11 1 10 12
M  V30 12 1 10 13
M  V30 13 2 12 14
M  V30 14 1 12 15
M  V30 15 2 13 16
M  V30 16 1 13 17
M  V30 17 2 15 18
M  V30 18 1 16 19
M  V30 19 1 16 20
M  V30 20 2 17 21
M  V30 21 2 19 22
M  V30 22 1 19 23
M  V30 23 2 20 24
M  V30 24 1 4 6
M  V30 25 1 9 11
M  V30 26 1 15 17
M  V30 27 1 21 24
M  V30 END BOND
M  V30 END CTAB
M  END
>  <Ligand InChI>
InChI=1S/C17H10N2O4S/c20-16-12-5-3-6-13(19(22)23)15(12)18(17(16)21)9-11-8-10-4-1-2-7-14(10)24-11/h1-8H,9H2

>  <Ligand InChI Key>
BEXUOOJPJCTWKL-UHFFFAOYSA-N

>  <BindingDB MonomerID>
50167306

>  <Target Name Assigned by Curator or DataSource>
Papain-like protease (PLpro)

>  <Target Source Organism According to Curator or DataSource>


>  <IC50 (nM)>
2000

>  <PMID>
15896959

>  <Ligand HET ID in PDB>


>  <PDB ID(s) for Ligand-Target Complex>


>  <PubChem CID>
44398343

>  <PubChem SID>
104052580

>  <ChEMBL ID of Ligand>
CHEMBL187717

>  <DrugBank ID of Ligand>


>  <ZINC ID of Ligand>
ZINC28461719

>  <PDB ID(s) of Target Chain>
1Q2W,1QZ8,1UJ1,1UK2,1UK3,1UK4,1UW7,1WOF,1Z1I,2A5A,2A5I,2A5K,2ACF,2AHM,2ALV,2AMD,2AMQ,2BX3,2BX4,2C3S,2D2D,2DUC,2FAV,2FE8,2FYG,2G9T,2GA6,2GDT,2GRI,2GT7,2GT8,2GTB,2GX4,2GZ7,2GZ8,2GZ9,2H2Z,2HOB,2HSX,2IDY,2JZF,2K7X,2K87,2KAF,2LIZ,2OP9,2RNK,2V6N,2VJ1,2XYQ,2XYR,2XYV,2Z3C,2Z3D,2Z3E,2Z94,2Z9G,2Z9J,2Z9K,2Z9L,2ZU4,2ZU5,3D62,3E91,3E9S,3EA7,3EA8,3EBN,3IWM,3M3V,3MJ5,3R24,3SN8,3SNA,3SNB,3SNC,3SND,3SNE,3SZN,3TIT,3TIU,3TNS,3TNT,3V3M,3VB3,3VB4,3VB5,3VB6,3VB7,4MDS,4MM3,4OVZ,4OW0,5C8S,5C8T,5C8U,5F22,5N19,5N5O,5NFY,5TL6,5TL7,5Y3E,5Y3Q,6LNQ,6LNY,6LO0,6NUR,6NUS,6WCO,6XHL,6XHN,6XHO,6XMK,6XOA

>  <Smiles>
[O-][N+](c(cccc1C2=O)c1N(Cc1cc(cccc3)c3s1)C2=O)=O

$$$$
50167309
Actelion Java MolfileCreator 2.0

  0  0  0  0  0  0              0 V3000
M  V30 BEGIN CTAB
M  V30 COUNTS 22 25 0 0 0
M  V30 BEGIN ATOM
M  V30 1 Br 0.0 0.0 0.0 0
M  V30 2 C -0.0119 1.5115 0.0 0
M  V30 3 C 1.2734 2.2851 0.0 0
M  V30 4 C -1.321 2.2732 0.0 0
M  V30 5 N 2.7016 1.8328 0.0 0
M  V30 6 C 1.2615 3.7966 0.0 0
M  V30 7 C -1.3329 3.7966 0.0 0
M  V30 8 C 3.5824 3.0587 0.0 0
M  V30 9 C 3.1658 0.4046 0.0 0
M  V30 10 C 2.6897 4.2846 0.0 0
M  V30 11 C -0.0476 4.5583 0.0 0
M  V30 12 O 5.0701 3.0706 0.0 0
M  V30 13 C 4.6178 0.1071 0.0 0
M  V30 14 O 3.1301 5.7366 0.0 0
M  V30 15 S 5.7247 1.1425 0.0 0
M  V30 16 C 5.2248 -1.2496 0.0 0
M  V30 17 C 7.01 0.4046 0.0 0
M  V30 18 C 6.6887 -1.0592 0.0 0
M  V30 19 C 8.4144 0.8807 0.0 0
M  V30 20 C 7.7956 -2.047 0.0 0
M  V30 21 C 9.5213 -0.1071 0.0 0
M  V30 22 C 9.2119 -1.5829 0.0 0
M  V30 END ATOM
M  V30 BEGIN BOND
M  V30 1 1 1 2
M  V30 2 2 2 3
M  V30 3 1 2 4
M  V30 4 1 3 5
M  V30 5 1 3 6
M  V30 6 2 4 7
M  V30 7 1 5 8
M  V30 8 1 5 9
M  V30 9 1 6 10
M  V30 10 2 6 11
M  V30 11 2 8 12
M  V30 12 1 9 13
M  V30 13 2 10 14
M  V30 14 1 13 15
M  V30 15 2 13 16
M  V30 16 1 15 17
M  V30 17 1 16 18
M  V30 18 1 17 19
M  V30 19 1 18 20
M  V30 20 2 19 21
M  V30 21 2 20 22
M  V30 22 1 7 11
M  V30 23 1 8 10
M  V30 24 2 17 18
M  V30 25 1 21 22
M  V30 END BOND
M  V30 END CTAB
M  END
>  <Ligand InChI>
InChI=1S/C17H10BrNO2S/c18-13-6-3-5-12-15(13)19(17(21)16(12)20)9-11-8-10-4-1-2-7-14(10)22-11/h1-8H,9H2

>  <Ligand InChI Key>
UFOWXDUBQLPEOX-UHFFFAOYSA-N

>  <BindingDB MonomerID>
50167309

>  <Target Name Assigned by Curator or DataSource>
Papain-like protease (PLpro)

>  <Target Source Organism According to Curator or DataSource>


>  <IC50 (nM)>
980

>  <PMID>
15896959

>  <Ligand HET ID in PDB>


>  <PDB ID(s) for Ligand-Target Complex>


>  <PubChem CID>
11667869

>  <PubChem SID>
104052583

>  <ChEMBL ID of Ligand>
CHEMBL365134

>  <DrugBank ID of Ligand>


>  <ZINC ID of Ligand>
ZINC28465712

>  <PDB ID(s) of Target Chain>
1Q2W,1QZ8,1UJ1,1UK2,1UK3,1UK4,1UW7,1WOF,1Z1I,2A5A,2A5I,2A5K,2ACF,2AHM,2ALV,2AMD,2AMQ,2BX3,2BX4,2C3S,2D2D,2DUC,2FAV,2FE8,2FYG,2G9T,2GA6,2GDT,2GRI,2GT7,2GT8,2GTB,2GX4,2GZ7,2GZ8,2GZ9,2H2Z,2HOB,2HSX,2IDY,2JZF,2K7X,2K87,2KAF,2LIZ,2OP9,2RNK,2V6N,2VJ1,2XYQ,2XYR,2XYV,2Z3C,2Z3D,2Z3E,2Z94,2Z9G,2Z9J,2Z9K,2Z9L,2ZU4,2ZU5,3D62,3E91,3E9S,3EA7,3EA8,3EBN,3IWM,3M3V,3MJ5,3R24,3SN8,3SNA,3SNB,3SNC,3SND,3SNE,3SZN,3TIT,3TIU,3TNS,3TNT,3V3M,3VB3,3VB4,3VB5,3VB6,3VB7,4MDS,4MM3,4OVZ,4OW0,5C8S,5C8T,5C8U,5F22,5N19,5N5O,5NFY,5TL6,5TL7,5Y3E,5Y3Q,6LNQ,6LNY,6LO0,6NUR,6NUS,6WCO,6XHL,6XHN,6XHO,6XMK,6XOA

>  <Smiles>
O=C(c1cccc(Br)c1N1Cc2cc(cccc3)c3s2)C1=O

$$$$
50055218
Actelion Java MolfileCreator 2.0

  0  0  0  0  0  0              0 V3000
M  V30 BEGIN CTAB
M  V30 COUNTS 25 28 0 0 0
M  V30 BEGIN ATOM
M  V30 1 O 0.0 0.0 0.0 0
M  V30 2 C 1.4916 0.0591 0.0 0
M  V30 3 N 2.3913 -1.1128 0.0 0
M  V30 4 C 2.3203 1.3259 0.0 0
M  V30 5 C 3.7883 -0.58 0.0 0
M  V30 6 C 2.3795 -2.6044 0.0 0
M  V30 7 O 1.7876 2.7465 0.0 0
M  V30 8 C 3.7409 0.9234 0.0 0
M  V30 9 C 5.1023 -1.2903 0.0 0
M  V30 10 C 1.3022 -3.658 0.0 0
M  V30 11 C 5.0076 1.7284 0.0 0
M  V30 12 C 6.3927 -0.4853 0.0 0
M  V30 13 C 0.0118 -2.9004 0.0 0
M  V30 14 C 1.2785 -5.1378 0.0 0
M  V30 15 C 6.3217 1.0299 0.0 0
M  V30 16 C -1.314 -3.6225 0.0 0
M  V30 17 C -0.0473 -5.8718 0.0 0
M  V30 18 C 7.5884 1.8468 0.0 0
M  V30 19 C -1.3495 -5.1023 0.0 0
M  V30 20 C -2.6281 -2.8412 0.0 0
M  V30 21 O 7.5292 3.3621 0.0 0
M  V30 22 N 8.9025 1.172 0.0 0
M  V30 23 C -2.6399 -5.8363 0.0 0
M  V30 24 C -3.9185 -3.5752 0.0 0
M  V30 25 C -3.9422 -5.0787 0.0 0
M  V30 END ATOM
M  V30 BEGIN BOND
M  V30 1 2 1 2
M  V30 2 1 2 3
M  V30 3 1 2 4
M  V30 4 1 3 5
M  V30 5 1 3 6
M  V30 6 2 4 7
M  V30 7 1 4 8
M  V30 8 1 5 9
M  V30 9 1 6 10
M  V30 10 1 8 11
M  V30 11 2 9 12
M  V30 12 2 10 13
M  V30 13 1 10 14
M  V30 14 2 11 15
M  V30 15 1 13 16
M  V30 16 2 14 17
M  V30 17 1 15 18
M  V30 18 1 16 19
M  V30 19 2 16 20
M  V30 20 2 18 21
M  V30 21 1 18 22
M  V30 22 2 19 23
M  V30 23 1 20 24
M  V30 24 1 23 25
M  V30 25 2 5 8
M  V30 26 1 12 15
M  V30 27 1 17 19
M  V30 28 2 24 25
M  V30 END BOND
M  V30 END CTAB
M  END
>  <Ligand InChI>
InChI=1S/C20H14N2O3/c21-19(24)15-7-8-17-16(10-15)18(23)20(25)22(17)11-12-5-6-13-3-1-2-4-14(13)9-12/h1-10H,11H2,(H2,21,24)

>  <Ligand InChI Key>
NTNYHMJYSGPGCQ-UHFFFAOYSA-N

>  <BindingDB MonomerID>
50055218

>  <Target Name Assigned by Curator or DataSource>
Papain-like protease (PLpro)

>  <Target Source Organism According to Curator or DataSource>


>  <IC50 (nM)>
370

>  <PMID>
16759084

>  <Ligand HET ID in PDB>


>  <PDB ID(s) for Ligand-Target Complex>


>  <PubChem CID>
515964

>  <PubChem SID>
103951731

>  <ChEMBL ID of Ligand>
CHEMBL358279

>  <DrugBank ID of Ligand>


>  <ZINC ID of Ligand>
ZINC03590592

>  <PDB ID(s) of Target Chain>
1Q2W,1QZ8,1UJ1,1UK2,1UK3,1UK4,1UW7,1WOF,1Z1I,2A5A,2A5I,2A5K,2ACF,2AHM,2ALV,2AMD,2AMQ,2BX3,2BX4,2C3S,2D2D,2DUC,2FAV,2FE8,2FYG,2G9T,2GA6,2GDT,2GRI,2GT7,2GT8,2GTB,2GX4,2GZ7,2GZ8,2GZ9,2H2Z,2HOB,2HSX,2IDY,2JZF,2K7X,2K87,2KAF,2LIZ,2OP9,2RNK,2V6N,2VJ1,2XYQ,2XYR,2XYV,2Z3C,2Z3D,2Z3E,2Z94,2Z9G,2Z9J,2Z9K,2Z9L,2ZU4,2ZU5,3D62,3E91,3E9S,3EA7,3EA8,3EBN,3IWM,3M3V,3MJ5,3R24,3SN8,3SNA,3SNB,3SNC,3SND,3SNE,3SZN,3TIT,3TIU,3TNS,3TNT,3V3M,3VB3,3VB4,3VB5,3VB6,3VB7,4MDS,4MM3,4OVZ,4OW0,5C8S,5C8T,5C8U,5F22,5N19,5N5O,5NFY,5TL6,5TL7,5Y3E,5Y3Q,6LNQ,6LNY,6LO0,6NUR,6NUS,6WCO,6XHL,6XHN,6XHO,6XMK,6XOA

>  <Smiles>
NC(c(cc1)cc(C2=O)c1N(Cc1cc3ccccc3cc1)C2=O)=O

$$$$
50297254
Actelion Java MolfileCreator 2.0

  0  0  0  0  0  0              0 V3000
M  V30 BEGIN CTAB
M  V30 COUNTS 31 34 0 0 0
M  V30 BEGIN ATOM
M  V30 1 O 0.0 0.0 0.0 0
M  V30 2 C -0.0119 -1.4925 0.0 0
M  V30 3 C 1.2895 -2.2448 0.0 0
M  V30 4 C -1.3254 -2.2448 0.0 0
M  V30 5 O 2.5791 -1.4806 0.0 0
M  V30 6 C 1.2776 -3.7493 0.0 0
M  V30 7 C -1.3373 -3.7493 0.0 0
M  V30 8 C -2.6388 -1.4925 0.0 0
M  V30 9 O -0.0477 -4.4896 0.0 0
M  V30 10 C 2.5672 -4.4896 0.0 0
M  V30 11 C -2.6508 -4.4896 0.0 0
M  V30 12 O -2.6508 0.0238 0.0 0
M  V30 13 C -3.9523 -2.2328 0.0 0
M  V30 14 C 3.8448 -3.7254 0.0 0
M  V30 15 C 2.5433 -5.9822 0.0 0
M  V30 16 C -3.9642 -3.7254 0.0 0
M  V30 17 C 5.1344 -4.4657 0.0 0
M  V30 18 C 3.8329 -6.7225 0.0 0
M  V30 19 O -5.2777 -4.4657 0.0 0
M  V30 20 O 6.424 -3.7015 0.0 0
M  V30 21 C 5.1105 -5.9583 0.0 0
M  V30 22 C -5.2897 -5.9583 0.0 0
M  V30 23 O 6.4001 -6.6986 0.0 0
M  V30 24 C -6.6031 -6.6986 0.0 0
M  V30 25 C -6.6151 -8.1793 0.0 0
M  V30 26 C -7.9166 -5.9344 0.0 0
M  V30 27 C -7.9166 -8.9196 0.0 0
M  V30 28 C -9.2301 -6.6748 0.0 0
M  V30 29 C -7.9166 -10.4122 0.0 0
M  V30 30 C -9.242 -8.1554 0.0 0
M  V30 31 N -7.9285 -11.9048 0.0 0
M  V30 END ATOM
M  V30 BEGIN BOND
M  V30 1 2 1 2
M  V30 2 1 2 3
M  V30 3 1 2 4
M  V30 4 1 3 5
M  V30 5 2 3 6
M  V30 6 2 4 7
M  V30 7 1 4 8
M  V30 8 1 6 9
M  V30 9 1 6 10
M  V30 10 1 7 11
M  V30 11 1 8 12
M  V30 12 2 8 13
M  V30 13 2 10 14
M  V30 14 1 10 15
M  V30 15 2 11 16
M  V30 16 1 14 17
M  V30 17 2 15 18
M  V30 18 1 16 19
M  V30 19 1 17 20
M  V30 20 2 17 21
M  V30 21 1 19 22
M  V30 22 1 21 23
M  V30 23 1 22 24
M  V30 24 2 24 25
M  V30 25 1 24 26
M  V30 26 1 25 27
M  V30 27 2 26 28
M  V30 28 1 27 29
M  V30 29 2 27 30
M  V30 30 3 29 31
M  V30 31 1 7 9
M  V30 32 1 13 16
M  V30 33 1 18 21
M  V30 34 1 28 30
M  V30 END BOND
M  V30 END CTAB
M  END
>  <Ligand InChI>
InChI=1S/C23H15NO7/c24-10-12-2-1-3-13(6-12)11-30-15-8-18(27)20-19(9-15)31-23(22(29)21(20)28)14-4-5-16(25)17(26)7-14/h1-9,25-27,29H,11H2

>  <Ligand InChI Key>
JBMZSOUKPAAEJU-UHFFFAOYSA-N

>  <BindingDB MonomerID>
50297254

>  <Target Name Assigned by Curator or DataSource>
3C-like proteinase (3CL-PRO)

>  <Target Source Organism According to Curator or DataSource>
Human SARS coronavirus

>  <IC50 (nM)>
2700

>  <PMID>
19625187

>  <Ligand HET ID in PDB>


>  <PDB ID(s) for Ligand-Target Complex>


>  <PubChem CID>
44517748

>  <PubChem SID>
104138785

>  <ChEMBL ID of Ligand>
CHEMBL551131

>  <DrugBank ID of Ligand>


>  <ZINC ID of Ligand>
ZINC43011508

>  <PDB ID(s) of Target Chain>
1Q2W,1QZ8,1UJ1,1UK2,1UK3,1UK4,1UW7,1WOF,1Z1I,2A5A,2A5I,2A5K,2ACF,2AHM,2ALV,2AMD,2AMQ,2BX3,2BX4,2C3S,2D2D,2DUC,2FAV,2FE8,2FYG,2G9T,2GA6,2GDT,2GRI,2GT7,2GT8,2GTB,2GX4,2GZ7,2GZ8,2GZ9,2H2Z,2HOB,2HSX,2IDY,2JZF,2K7X,2K87,2KAF,2LIZ,2OP9,2OZK,2RNK,2V6N,2VJ1,2XYQ,2XYR,2XYV,2Z3C,2Z3D,2Z3E,2Z94,2Z9G,2Z9J,2Z9K,2Z9L,2ZU4,2ZU5,3D62,3E91,3E9S,3EA7,3EA8,3EBN,3IWM,3M3V,3MJ5,3R24,3SN8,3SNA,3SNB,3SNC,3SND,3SNE,3SZN,3TIT,3TIU,3TNS,3TNT,3V3M,3VB3,3VB4,3VB5,3VB6,3VB7,4MDS,4MM3,4OVZ,4OW0,5C8S,5C8T,5C8U,5F22,5N19,5N5O,5NFY,5TL6,5TL7,5Y3E,5Y3Q,6JYT,6LNQ,6LNY,6LO0,6NUR,6NUS,6WCO,6XHL,6XHN,6XHO,6XMK,6XOA,7C2K

>  <Smiles>
N#Cc1cccc(COc(cc2O)cc(OC(c(cc3)cc(O)c3O)=C3O)c2C3=O)c1

$$$$
50297252
Actelion Java MolfileCreator 2.0

  0  0  0  0  0  0              0 V3000
M  V30 BEGIN CTAB
M  V30 COUNTS 30 33 0 0 0
M  V30 BEGIN ATOM
M  V30 1 Cl 0.0 0.0 0.0 0
M  V30 2 C 1.2894 0.7641 0.0 0
M  V30 3 C 1.2775 2.2804 0.0 0
M  V30 4 C 2.5908 0.0238 0.0 0
M  V30 5 C 2.5669 3.0445 0.0 0
M  V30 6 C 3.8683 0.788 0.0 0
M  V30 7 C 3.8564 2.3043 0.0 0
M  V30 8 C 5.1459 3.0684 0.0 0
M  V30 9 O 5.1339 4.5847 0.0 0
M  V30 10 C 6.4234 5.3488 0.0 0
M  V30 11 C 7.7128 4.6086 0.0 0
M  V30 12 C 6.4114 6.8651 0.0 0
M  V30 13 C 9.0023 5.3727 0.0 0
M  V30 14 C 7.7009 7.6293 0.0 0
M  V30 15 O 10.2918 4.6325 0.0 0
M  V30 16 C 8.9904 6.901 0.0 0
M  V30 17 O 7.689 9.1456 0.0 0
M  V30 18 C 11.5932 5.3966 0.0 0
M  V30 19 C 10.2798 7.677 0.0 0
M  V30 20 C 11.5812 6.9248 0.0 0
M  V30 21 C 12.8826 4.6563 0.0 0
M  V30 22 O 10.2679 9.1933 0.0 0
M  V30 23 O 12.8707 7.689 0.0 0
M  V30 24 C 14.1602 5.4205 0.0 0
M  V30 25 C 12.8588 3.1639 0.0 0
M  V30 26 C 15.4496 4.6802 0.0 0
M  V30 27 C 14.1482 2.4237 0.0 0
M  V30 28 O 16.7391 5.4443 0.0 0
M  V30 29 C 15.4257 3.1878 0.0 0
M  V30 30 O 16.7152 2.4475 0.0 0
M  V30 END ATOM
M  V30 BEGIN BOND
M  V30 1 1 1 2
M  V30 2 2 2 3
M  V30 3 1 2 4
M  V30 4 1 3 5
M  V30 5 2 4 6
M  V30 6 2 5 7
M  V30 7 1 7 8
M  V30 8 1 8 9
M  V30 9 1 9 10
M  V30 10 2 10 11
M  V30 11 1 10 12
M  V30 12 1 11 13
M  V30 13 2 12 14
M  V30 14 1 13 15
M  V30 15 2 13 16
M  V30 16 1 14 17
M  V30 17 1 15 18
M  V30 18 1 16 19
M  V30 19 2 18 20
M  V30 20 1 18 21
M  V30 21 2 19 22
M  V30 22 1 20 23
M  V30 23 2 21 24
M  V30 24 1 21 25
M  V30 25 1 24 26
M  V30 26 2 25 27
M  V30 27 1 26 28
M  V30 28 2 26 29
M  V30 29 1 29 30
M  V30 30 1 6 7
M  V30 31 1 14 16
M  V30 32 1 19 20
M  V30 33 1 27 29
M  V30 END BOND
M  V30 END CTAB
M  END
>  <Ligand InChI>
InChI=1S/C22H15ClO7/c23-13-4-1-11(2-5-13)10-29-14-8-17(26)19-18(9-14)30-22(21(28)20(19)27)12-3-6-15(24)16(25)7-12/h1-9,24-26,28H,10H2

>  <Ligand InChI Key>
BYQBMIHQROWCQG-UHFFFAOYSA-N

>  <BindingDB MonomerID>
50297252

>  <Target Name Assigned by Curator or DataSource>
3C-like proteinase (3CL-PRO)

>  <Target Source Organism According to Curator or DataSource>
Human SARS coronavirus

>  <IC50 (nM)>
4100

>  <PMID>
19625187

>  <Ligand HET ID in PDB>


>  <PDB ID(s) for Ligand-Target Complex>


>  <PubChem CID>
45270979

>  <PubChem SID>
104138783

>  <ChEMBL ID of Ligand>
CHEMBL550256

>  <DrugBank ID of Ligand>


>  <ZINC ID of Ligand>
ZINC43012025

>  <PDB ID(s) of Target Chain>
1Q2W,1QZ8,1UJ1,1UK2,1UK3,1UK4,1UW7,1WOF,1Z1I,2A5A,2A5I,2A5K,2ACF,2AHM,2ALV,2AMD,2AMQ,2BX3,2BX4,2C3S,2D2D,2DUC,2FAV,2FE8,2FYG,2G9T,2GA6,2GDT,2GRI,2GT7,2GT8,2GTB,2GX4,2GZ7,2GZ8,2GZ9,2H2Z,2HOB,2HSX,2IDY,2JZF,2K7X,2K87,2KAF,2LIZ,2OP9,2OZK,2RNK,2V6N,2VJ1,2XYQ,2XYR,2XYV,2Z3C,2Z3D,2Z3E,2Z94,2Z9G,2Z9J,2Z9K,2Z9L,2ZU4,2ZU5,3D62,3E91,3E9S,3EA7,3EA8,3EBN,3IWM,3M3V,3MJ5,3R24,3SN8,3SNA,3SNB,3SNC,3SND,3SNE,3SZN,3TIT,3TIU,3TNS,3TNT,3V3M,3VB3,3VB4,3VB5,3VB6,3VB7,4MDS,4MM3,4OVZ,4OW0,5C8S,5C8T,5C8U,5F22,5N19,5N5O,5NFY,5TL6,5TL7,5Y3E,5Y3Q,6JYT,6LNQ,6LNY,6LO0,6NUR,6NUS,6WCO,6XHL,6XHN,6XHO,6XMK,6XOA,7C2K

>  <Smiles>
Oc(ccc(C(Oc(cc(cc1O)OCc(cc2)ccc2Cl)c1C1=O)=C1O)c1)c1O

$$$$
50423877
Actelion Java MolfileCreator 2.0

  0  0  0  0  0  0              0 V3000
M  V30 BEGIN CTAB
M  V30 COUNTS 21 24 0 0 0
M  V30 BEGIN ATOM
M  V30 1 O 0.0 0.0 0.0 0
M  V30 2 C 1.2985 -0.7266 0.0 0
M  V30 3 C 1.2985 -2.2157 0.0 0
M  V30 4 C 2.585 0.0476 0.0 0
M  V30 5 C -0.0119 -2.9543 0.0 0
M  V30 6 C 2.597 -2.9424 0.0 0
M  V30 7 O 2.5612 1.5605 0.0 0
M  V30 8 C 3.8835 -0.679 0.0 0
M  V30 9 C -0.0119 -4.4554 0.0 0
M  V30 10 C -1.3342 -2.2038 0.0 0
M  V30 11 C 3.8716 -2.18 0.0 0
M  V30 12 C 2.585 -4.4315 0.0 0
M  V30 13 C 5.3012 -0.2025 0.0 0 CFG=2
M  V30 14 C -1.3223 -5.2178 0.0 0
M  V30 15 C 1.2746 -5.182 0.0 0
M  V30 16 C -2.6446 -2.9543 0.0 0
M  V30 17 O 5.2893 -2.6327 0.0 0
M  V30 18 C 6.1708 -1.4057 0.0 0
M  V30 19 C 5.7539 1.2389 0.0 0
M  V30 20 C -2.6565 -4.4554 0.0 0
M  V30 21 C -1.3223 -6.7069 0.0 0
M  V30 END ATOM
M  V30 BEGIN BOND
M  V30 1 2 1 2
M  V30 2 1 2 3
M  V30 3 1 2 4
M  V30 4 1 3 5
M  V30 5 2 3 6
M  V30 6 2 4 7
M  V30 7 1 4 8
M  V30 8 1 5 9
M  V30 9 2 5 10
M  V30 10 1 6 11
M  V30 11 1 6 12
M  V30 12 1 8 13
M  V30 13 2 9 14
M  V30 14 1 9 15
M  V30 15 1 10 16
M  V30 16 1 11 17
M  V30 17 1 13 18
M  V30 18 1 13 19 CFG=1
M  V30 19 1 14 20
M  V30 20 1 14 21
M  V30 21 2 8 11
M  V30 22 2 12 15
M  V30 23 2 16 20
M  V30 24 1 17 18
M  V30 END BOND
M  V30 BEGIN COLLECTION
M  V30 MDLV30/STERAC1 ATOMS=(1 13)
M  V30 END COLLECTION
M  V30 END CTAB
M  END
>  <Ligand InChI>
InChI=1/C18H14O3/c1-9-4-3-5-12-11(9)6-7-13-15(12)17(20)16(19)14-10(2)8-21-18(13)14/h3-7,10H,8H2,1-2H3/t10-/s2

>  <Ligand InChI Key>
HARGZZNYNSYSGJ-UEQNJFAPNA-N

>  <BindingDB MonomerID>
50423877

>  <Target Name Assigned by Curator or DataSource>
Papain-like protease (PLpro)

>  <Target Source Organism According to Curator or DataSource>


>  <IC50 (nM)>
1200

>  <PMID>
22884354

>  <Ligand HET ID in PDB>
1YL

>  <PDB ID(s) for Ligand-Target Complex>
4M0E

>  <PubChem CID>
11425923

>  <PubChem SID>
164152752

>  <ChEMBL ID of Ligand>


>  <DrugBank ID of Ligand>


>  <ZINC ID of Ligand>
ZINC02585546

>  <PDB ID(s) of Target Chain>
1Q2W,1QZ8,1UJ1,1UK2,1UK3,1UK4,1UW7,1WOF,1Z1I,2A5A,2A5I,2A5K,2ACF,2AHM,2ALV,2AMD,2AMQ,2BX3,2BX4,2C3S,2D2D,2DUC,2FAV,2FE8,2FYG,2G9T,2GA6,2GDT,2GRI,2GT7,2GT8,2GTB,2GX4,2GZ7,2GZ8,2GZ9,2H2Z,2HOB,2HSX,2IDY,2JZF,2K7X,2K87,2KAF,2LIZ,2OP9,2RNK,2V6N,2VJ1,2XYQ,2XYR,2XYV,2Z3C,2Z3D,2Z3E,2Z94,2Z9G,2Z9J,2Z9K,2Z9L,2ZU4,2ZU5,3D62,3E91,3E9S,3EA7,3EA8,3EBN,3IWM,3M3V,3MJ5,3R24,3SN8,3SNA,3SNB,3SNC,3SND,3SNE,3SZN,3TIT,3TIU,3TNS,3TNT,3V3M,3VB3,3VB4,3VB5,3VB6,3VB7,4MDS,4MM3,4OVZ,4OW0,5C8S,5C8T,5C8U,5F22,5N19,5N5O,5NFY,5TL6,5TL7,5Y3E,5Y3Q,6LNQ,6LNY,6LO0,6NUR,6NUS,6WCO,6XHL,6XHN,6XHO,6XMK,6XOA

>  <Smiles>
CC1C(C(C(c2c3ccc4c(C)cccc24)=O)=O)=C3OC1

$$$$
83922
Actelion Java MolfileCreator 2.0

  0  0  0  0  0  0              0 V3000
M  V30 BEGIN CTAB
M  V30 COUNTS 22 25 0 0 0
M  V30 BEGIN ATOM
M  V30 1 O 0.0 0.0 0.0 0
M  V30 2 C 1.2642 -0.7224 0.0 0
M  V30 3 C 1.2521 -2.1792 0.0 0
M  V30 4 C 2.5284 0.024 0.0 0
M  V30 5 C 2.5163 -2.9016 0.0 0
M  V30 6 C -0.0963 -2.9137 0.0 0
M  V30 7 O 2.5163 1.505 0.0 0
M  V30 8 C 3.7926 -0.6983 0.0 0
M  V30 9 C 3.7806 -2.1551 0.0 0
M  V30 10 C 2.5284 -4.4187 0.0 0
M  V30 11 C -0.1204 -4.4307 0.0 0
M  V30 12 C -1.4689 -2.0709 0.0 0
M  V30 13 C 5.1652 -0.2408 0.0 0
M  V30 14 O 5.1531 -2.5886 0.0 0
M  V30 15 C 1.1919 -5.1772 0.0 0
M  V30 16 C -1.505 -5.2254 0.0 0
M  V30 17 C -2.8776 -2.8294 0.0 0
M  V30 18 C 6.008 -1.4087 0.0 0
M  V30 19 C 5.6107 1.1678 0.0 0
M  V30 20 C -2.9016 -4.4187 0.0 0
M  V30 21 C -2.2515 -6.4896 0.0 0
M  V30 22 C -0.7826 -6.4776 0.0 0
M  V30 END ATOM
M  V30 BEGIN BOND
M  V30 1 2 1 2
M  V30 2 1 2 3
M  V30 3 1 2 4
M  V30 4 2 3 5
M  V30 5 1 3 6
M  V30 6 2 4 7
M  V30 7 1 4 8
M  V30 8 1 5 9
M  V30 9 1 5 10
M  V30 10 2 6 11
M  V30 11 1 6 12
M  V30 12 1 8 13
M  V30 13 1 9 14
M  V30 14 2 10 15
M  V30 15 1 11 16
M  V30 16 1 12 17
M  V30 17 2 13 18
M  V30 18 1 13 19
M  V30 19 1 16 20
M  V30 20 1 16 21
M  V30 21 1 16 22
M  V30 22 2 8 9
M  V30 23 1 11 15
M  V30 24 1 14 18
M  V30 25 1 17 20
M  V30 END BOND
M  V30 END CTAB
M  END
>  <Ligand InChI>
InChI=1S/C19H18O3/c1-10-9-22-18-12-6-7-13-11(5-4-8-19(13,2)3)15(12)17(21)16(20)14(10)18/h6-7,9H,4-5,8H2,1-3H3

>  <Ligand InChI Key>
HYXITZLLTYIPOF-UHFFFAOYSA-N

>  <BindingDB MonomerID>
83922

>  <Target Name Assigned by Curator or DataSource>
Papain-like protease (PLpro)

>  <Target Source Organism According to Curator or DataSource>


>  <IC50 (nM)>
1600

>  <PMID>
22884354

>  <Ligand HET ID in PDB>


>  <PDB ID(s) for Ligand-Target Complex>


>  <PubChem CID>
164676

>  <PubChem SID>
252659093

>  <ChEMBL ID of Ligand>


>  <DrugBank ID of Ligand>


>  <ZINC ID of Ligand>
ZINC01650576

>  <PDB ID(s) of Target Chain>
1Q2W,1QZ8,1UJ1,1UK2,1UK3,1UK4,1UW7,1WOF,1Z1I,2A5A,2A5I,2A5K,2ACF,2AHM,2ALV,2AMD,2AMQ,2BX3,2BX4,2C3S,2D2D,2DUC,2FAV,2FE8,2FYG,2G9T,2GA6,2GDT,2GRI,2GT7,2GT8,2GTB,2GX4,2GZ7,2GZ8,2GZ9,2H2Z,2HOB,2HSX,2IDY,2JZF,2K7X,2K87,2KAF,2LIZ,2OP9,2RNK,2V6N,2VJ1,2XYQ,2XYR,2XYV,2Z3C,2Z3D,2Z3E,2Z94,2Z9G,2Z9J,2Z9K,2Z9L,2ZU4,2ZU5,3D62,3E91,3E9S,3EA7,3EA8,3EBN,3IWM,3M3V,3MJ5,3R24,3SN8,3SNA,3SNB,3SNC,3SND,3SNE,3SZN,3TIT,3TIU,3TNS,3TNT,3V3M,3VB3,3VB4,3VB5,3VB6,3VB7,4MDS,4MM3,4OVZ,4OW0,5C8S,5C8T,5C8U,5F22,5N19,5N5O,5NFY,5TL6,5TL7,5Y3E,5Y3Q,6LNQ,6LNY,6LO0,6NUR,6NUS,6WCO,6XHL,6XHN,6XHO,6XMK,6XOA

>  <Smiles>
CC(C)(CCC1)c(cc2)c1c(C1=O)c2-c(occ2C)c2C1=O

$$$$
53072
Actelion Java MolfileCreator 2.0

  0  0  0  0  0  0              0 V3000
M  V30 BEGIN CTAB
M  V30 COUNTS 21 23 0 0 0
M  V30 BEGIN ATOM
M  V30 1 S 0.0 0.0 0.0 0
M  V30 2 C -1.2238 0.8943 0.0 0
M  V30 3 S -2.6595 0.4471 0.0 0
M  V30 4 N -1.2356 2.4006 0.0 0
M  V30 5 C -3.5539 1.671 0.0 0
M  V30 6 C -2.6713 2.8713 0.0 0
M  V30 7 C -0.0353 3.295 0.0 0
M  V30 8 C -5.0602 1.6828 0.0 0
M  V30 9 O -3.142 4.307 0.0 0
M  V30 10 C 1.318 2.6948 0.0 0
M  V30 11 S -5.9428 0.4942 0.0 0
M  V30 12 N -5.9428 2.8949 0.0 0
M  V30 13 C 2.5183 3.5892 0.0 0
M  V30 14 C -7.3667 0.9649 0.0 0
M  V30 15 C -7.3667 2.4477 0.0 0
M  V30 16 C -5.4956 4.3306 0.0 0
M  V30 17 C -8.6729 0.2353 0.0 0
M  V30 18 C -8.6729 3.2008 0.0 0
M  V30 19 C -6.5076 5.4603 0.0 0
M  V30 20 C -9.9792 0.9885 0.0 0
M  V30 21 C -9.9792 2.4712 0.0 0
M  V30 END ATOM
M  V30 BEGIN BOND
M  V30 1 2 1 2
M  V30 2 1 2 3
M  V30 3 1 2 4
M  V30 4 1 3 5
M  V30 5 1 4 6
M  V30 6 1 4 7
M  V30 7 2 5 8
M  V30 8 2 6 9
M  V30 9 1 7 10
M  V30 10 1 8 11
M  V30 11 1 8 12
M  V30 12 2 10 13
M  V30 13 1 11 14
M  V30 14 1 12 15
M  V30 15 1 12 16
M  V30 16 1 14 17
M  V30 17 1 15 18
M  V30 18 1 16 19
M  V30 19 2 17 20
M  V30 20 2 18 21
M  V30 21 1 5 6
M  V30 22 2 14 15
M  V30 23 1 20 21
M  V30 END BOND
M  V30 END CTAB
M  END
>  <Ligand InChI>
InChI=1S/C15H14N2OS3/c1-3-9-17-13(18)12(21-15(17)19)14-16(4-2)10-7-5-6-8-11(10)20-14/h3,5-8H,1,4,9H2,2H3/b14-12-

>  <Ligand InChI Key>
LEEYYBLQYWKAAT-OWBHPGMISA-N

>  <BindingDB MonomerID>
53072

>  <Target Name Assigned by Curator or DataSource>
Papain-like protease (PLpro)

>  <Target Source Organism According to Curator or DataSource>


>  <IC50 (nM)>
800

>  <PMID>
22884354

>  <Ligand HET ID in PDB>


>  <PDB ID(s) for Ligand-Target Complex>


>  <PubChem CID>
3094418

>  <PubChem SID>
252633205

>  <ChEMBL ID of Ligand>


>  <DrugBank ID of Ligand>


>  <ZINC ID of Ligand>
ZINC02109876

>  <PDB ID(s) of Target Chain>
1Q2W,1QZ8,1UJ1,1UK2,1UK3,1UK4,1UW7,1WOF,1Z1I,2A5A,2A5I,2A5K,2ACF,2AHM,2ALV,2AMD,2AMQ,2BX3,2BX4,2C3S,2D2D,2DUC,2FAV,2FE8,2FYG,2G9T,2GA6,2GDT,2GRI,2GT7,2GT8,2GTB,2GX4,2GZ7,2GZ8,2GZ9,2H2Z,2HOB,2HSX,2IDY,2JZF,2K7X,2K87,2KAF,2LIZ,2OP9,2RNK,2V6N,2VJ1,2XYQ,2XYR,2XYV,2Z3C,2Z3D,2Z3E,2Z94,2Z9G,2Z9J,2Z9K,2Z9L,2ZU4,2ZU5,3D62,3E91,3E9S,3EA7,3EA8,3EBN,3IWM,3M3V,3MJ5,3R24,3SN8,3SNA,3SNB,3SNC,3SND,3SNE,3SZN,3TIT,3TIU,3TNS,3TNT,3V3M,3VB3,3VB4,3VB5,3VB6,3VB7,4MDS,4MM3,4OVZ,4OW0,5C8S,5C8T,5C8U,5F22,5N19,5N5O,5NFY,5TL6,5TL7,5Y3E,5Y3Q,6LNQ,6LNY,6LO0,6NUR,6NUS,6WCO,6XHL,6XHN,6XHO,6XMK,6XOA

>  <Smiles>
CCN(c(cccc1)c1S1)/C1=C(\C(N1CC=C)=O)/SC1=S

$$$$
32805
Actelion Java MolfileCreator 2.0

  0  0  0  0  0  0              0 V3000
M  V30 BEGIN CTAB
M  V30 COUNTS 15 16 0 0 0
M  V30 BEGIN ATOM
M  V30 1 Cl 0.0 0.0 0.0 0
M  V30 2 C 1.2861 0.7551 0.0 0
M  V30 3 C 2.5722 0.0235 0.0 0
M  V30 4 C 1.2743 2.2654 0.0 0
M  V30 5 N 3.8584 0.7787 0.0 0
M  V30 6 C 2.5604 3.0206 0.0 0
M  V30 7 C 3.8466 2.289 0.0 0
M  V30 8 O 2.5486 4.5309 0.0 0
M  V30 9 C 3.8348 5.2861 0.0 0
M  V30 10 O 5.1209 4.5545 0.0 0
M  V30 11 C 3.823 6.7964 0.0 0
M  V30 12 O 2.5958 7.6932 0.0 0
M  V30 13 C 5.0265 7.6932 0.0 0
M  V30 14 C 3.0442 9.1327 0.0 0
M  V30 15 C 4.5545 9.1327 0.0 0
M  V30 END ATOM
M  V30 BEGIN BOND
M  V30 1 1 1 2
M  V30 2 2 2 3
M  V30 3 1 2 4
M  V30 4 1 3 5
M  V30 5 2 4 6
M  V30 6 2 5 7
M  V30 7 1 6 8
M  V30 8 1 8 9
M  V30 9 2 9 10
M  V30 10 1 9 11
M  V30 11 1 11 12
M  V30 12 2 11 13
M  V30 13 1 12 14
M  V30 14 1 13 15
M  V30 15 1 6 7
M  V30 16 2 14 15
M  V30 END BOND
M  V30 END CTAB
M  END
>  <Ligand InChI>
InChI=1S/C10H6ClNO3/c11-7-4-8(6-12-5-7)15-10(13)9-2-1-3-14-9/h1-6H

>  <Ligand InChI Key>
DWJOEJDGHVXXEB-UHFFFAOYSA-N

>  <BindingDB MonomerID>
32805

>  <Target Name Assigned by Curator or DataSource>
Papain-like protease (PLpro)

>  <Target Source Organism According to Curator or DataSource>


>  <IC50 (nM)>
60

>  <PMID>
17381079

>  <Ligand HET ID in PDB>


>  <PDB ID(s) for Ligand-Target Complex>


>  <PubChem CID>
7230550

>  <PubChem SID>
252615941

>  <ChEMBL ID of Ligand>
CHEMBL222840

>  <DrugBank ID of Ligand>


>  <ZINC ID of Ligand>
ZINC04419293

>  <PDB ID(s) of Target Chain>
1Q2W,1QZ8,1UJ1,1UK2,1UK3,1UK4,1UW7,1WOF,1Z1I,2A5A,2A5I,2A5K,2ACF,2AHM,2ALV,2AMD,2AMQ,2BX3,2BX4,2C3S,2D2D,2DUC,2FAV,2FE8,2FYG,2G9T,2GA6,2GDT,2GRI,2GT7,2GT8,2GTB,2GX4,2GZ7,2GZ8,2GZ9,2H2Z,2HOB,2HSX,2IDY,2JZF,2K7X,2K87,2KAF,2LIZ,2OP9,2RNK,2V6N,2VJ1,2XYQ,2XYR,2XYV,2Z3C,2Z3D,2Z3E,2Z94,2Z9G,2Z9J,2Z9K,2Z9L,2ZU4,2ZU5,3D62,3E91,3E9S,3EA7,3EA8,3EBN,3IWM,3M3V,3MJ5,3R24,3SN8,3SNA,3SNB,3SNC,3SND,3SNE,3SZN,3TIT,3TIU,3TNS,3TNT,3V3M,3VB3,3VB4,3VB5,3VB6,3VB7,4MDS,4MM3,4OVZ,4OW0,5C8S,5C8T,5C8U,5F22,5N19,5N5O,5NFY,5TL6,5TL7,5Y3E,5Y3Q,6LNQ,6LNY,6LO0,6NUR,6NUS,6WCO,6XHL,6XHN,6XHO,6XMK,6XOA

>  <Smiles>
O=C(c1ccco1)Oc1cc(Cl)cnc1

$$$$
50208938
Actelion Java MolfileCreator 2.0

  0  0  0  0  0  0              0 V3000
M  V30 BEGIN CTAB
M  V30 COUNTS 15 16 0 0 0
M  V30 BEGIN ATOM
M  V30 1 Cl 0.0 0.0 0.0 0
M  V30 2 C -1.304 -0.7349 0.0 0
M  V30 3 C -1.3158 -2.2286 0.0 0
M  V30 4 C -2.608 0.0237 0.0 0
M  V30 5 N -2.6317 -2.9636 0.0 0
M  V30 6 C -3.912 -0.7112 0.0 0
M  V30 7 C -3.9357 -2.2049 0.0 0
M  V30 8 O -5.216 0.0474 0.0 0
M  V30 9 C -6.52 -0.6875 0.0 0
M  V30 10 O -6.5318 -2.1693 0.0 0
M  V30 11 C -7.824 0.0711 0.0 0
M  V30 12 N -9.1991 -0.5216 0.0 0
M  V30 13 C -7.9899 1.5648 0.0 0
M  V30 14 C -10.2067 0.6045 0.0 0
M  V30 15 S -9.4599 1.8848 0.0 0
M  V30 END ATOM
M  V30 BEGIN BOND
M  V30 1 1 1 2
M  V30 2 2 2 3
M  V30 3 1 2 4
M  V30 4 1 3 5
M  V30 5 2 4 6
M  V30 6 2 5 7
M  V30 7 1 6 8
M  V30 8 1 8 9
M  V30 9 2 9 10
M  V30 10 1 9 11
M  V30 11 1 11 12
M  V30 12 2 11 13
M  V30 13 2 12 14
M  V30 14 1 13 15
M  V30 15 1 6 7
M  V30 16 1 14 15
M  V30 END BOND
M  V30 END CTAB
M  END
>  <Ligand InChI>
InChI=1S/C9H5ClN2O2S/c10-6-1-7(3-11-2-6)14-9(13)8-4-15-5-12-8/h1-5H

>  <Ligand InChI Key>
CSEAAOWXHPFATP-UHFFFAOYSA-N

>  <BindingDB MonomerID>
50208938

>  <Target Name Assigned by Curator or DataSource>
Papain-like protease (PLpro)

>  <Target Source Organism According to Curator or DataSource>


>  <IC50 (nM)>
270

>  <PMID>
17381079

>  <Ligand HET ID in PDB>


>  <PDB ID(s) for Ligand-Target Complex>


>  <PubChem CID>
16203796

>  <PubChem SID>
104085861

>  <ChEMBL ID of Ligand>
CHEMBL222628

>  <DrugBank ID of Ligand>


>  <ZINC ID of Ligand>
ZINC40584783

>  <PDB ID(s) of Target Chain>
1Q2W,1QZ8,1UJ1,1UK2,1UK3,1UK4,1UW7,1WOF,1Z1I,2A5A,2A5I,2A5K,2ACF,2AHM,2ALV,2AMD,2AMQ,2BX3,2BX4,2C3S,2D2D,2DUC,2FAV,2FE8,2FYG,2G9T,2GA6,2GDT,2GRI,2GT7,2GT8,2GTB,2GX4,2GZ7,2GZ8,2GZ9,2H2Z,2HOB,2HSX,2IDY,2JZF,2K7X,2K87,2KAF,2LIZ,2OP9,2RNK,2V6N,2VJ1,2XYQ,2XYR,2XYV,2Z3C,2Z3D,2Z3E,2Z94,2Z9G,2Z9J,2Z9K,2Z9L,2ZU4,2ZU5,3D62,3E91,3E9S,3EA7,3EA8,3EBN,3IWM,3M3V,3MJ5,3R24,3SN8,3SNA,3SNB,3SNC,3SND,3SNE,3SZN,3TIT,3TIU,3TNS,3TNT,3V3M,3VB3,3VB4,3VB5,3VB6,3VB7,4MDS,4MM3,4OVZ,4OW0,5C8S,5C8T,5C8U,5F22,5N19,5N5O,5NFY,5TL6,5TL7,5Y3E,5Y3Q,6LNQ,6LNY,6LO0,6NUR,6NUS,6WCO,6XHL,6XHN,6XHO,6XMK,6XOA

>  <Smiles>
O=C(c1cscn1)Oc1cc(Cl)cnc1

$$$$
50208939
Actelion Java MolfileCreator 2.0

  0  0  0  0  0  0              0 V3000
M  V30 BEGIN CTAB
M  V30 COUNTS 19 21 0 0 0
M  V30 BEGIN ATOM
M  V30 1 Cl 0.0 0.0 0.0 0
M  V30 2 C -1.3035 -0.7347 0.0 0
M  V30 3 C -1.3154 -2.2279 0.0 0
M  V30 4 C -2.6071 0.0237 0.0 0
M  V30 5 N -2.6308 -2.9626 0.0 0
M  V30 6 C -3.9106 -0.711 0.0 0
M  V30 7 C -3.9343 -2.2042 0.0 0
M  V30 8 O -5.2142 0.0474 0.0 0
M  V30 9 C -6.5178 -0.6873 0.0 0
M  V30 10 O -6.5296 -2.1686 0.0 0
M  V30 11 C -7.8213 0.0711 0.0 0
M  V30 12 N -9.196 -0.5214 0.0 0
M  V30 13 C -7.9872 1.5642 0.0 0
M  V30 14 C -10.2033 0.6043 0.0 0
M  V30 15 C -9.4567 1.8842 0.0 0
M  V30 16 C -11.7083 0.6162 0.0 0
M  V30 17 C -10.2151 3.1878 0.0 0
M  V30 18 C -12.4667 1.9197 0.0 0
M  V30 19 C -11.7202 3.1996 0.0 0
M  V30 END ATOM
M  V30 BEGIN BOND
M  V30 1 1 1 2
M  V30 2 2 2 3
M  V30 3 1 2 4
M  V30 4 1 3 5
M  V30 5 2 4 6
M  V30 6 2 5 7
M  V30 7 1 6 8
M  V30 8 1 8 9
M  V30 9 2 9 10
M  V30 10 1 9 11
M  V30 11 1 11 12
M  V30 12 2 11 13
M  V30 13 1 12 14
M  V30 14 1 13 15
M  V30 15 1 14 16
M  V30 16 1 15 17
M  V30 17 2 16 18
M  V30 18 2 17 19
M  V30 19 1 6 7
M  V30 20 2 14 15
M  V30 21 1 18 19
M  V30 END BOND
M  V30 END CTAB
M  END
>  <Ligand InChI>
InChI=1S/C14H9ClN2O2/c15-10-6-11(8-16-7-10)19-14(18)13-5-9-3-1-2-4-12(9)17-13/h1-8,17H

>  <Ligand InChI Key>
LJTINUKMKJKLBT-UHFFFAOYSA-N

>  <BindingDB MonomerID>
50208939

>  <Target Name Assigned by Curator or DataSource>
Papain-like protease (PLpro)

>  <Target Source Organism According to Curator or DataSource>


>  <IC50 (nM)>
65

>  <PMID>
17381079

>  <Ligand HET ID in PDB>


>  <PDB ID(s) for Ligand-Target Complex>


>  <PubChem CID>
16204322

>  <PubChem SID>
104085862

>  <ChEMBL ID of Ligand>
CHEMBL225515

>  <DrugBank ID of Ligand>


>  <ZINC ID of Ligand>
ZINC40585265

>  <PDB ID(s) of Target Chain>
1Q2W,1QZ8,1UJ1,1UK2,1UK3,1UK4,1UW7,1WOF,1Z1I,2A5A,2A5I,2A5K,2ACF,2AHM,2ALV,2AMD,2AMQ,2BX3,2BX4,2C3S,2D2D,2DUC,2FAV,2FE8,2FYG,2G9T,2GA6,2GDT,2GRI,2GT7,2GT8,2GTB,2GX4,2GZ7,2GZ8,2GZ9,2H2Z,2HOB,2HSX,2IDY,2JZF,2K7X,2K87,2KAF,2LIZ,2OP9,2RNK,2V6N,2VJ1,2XYQ,2XYR,2XYV,2Z3C,2Z3D,2Z3E,2Z94,2Z9G,2Z9J,2Z9K,2Z9L,2ZU4,2ZU5,3D62,3E91,3E9S,3EA7,3EA8,3EBN,3IWM,3M3V,3MJ5,3R24,3SN8,3SNA,3SNB,3SNC,3SND,3SNE,3SZN,3TIT,3TIU,3TNS,3TNT,3V3M,3VB3,3VB4,3VB5,3VB6,3VB7,4MDS,4MM3,4OVZ,4OW0,5C8S,5C8T,5C8U,5F22,5N19,5N5O,5NFY,5TL6,5TL7,5Y3E,5Y3Q,6LNQ,6LNY,6LO0,6NUR,6NUS,6WCO,6XHL,6XHN,6XHO,6XMK,6XOA

>  <Smiles>
O=C(c1cc(cccc2)c2[nH]1)Oc1cc(Cl)cnc1

$$$$
50208940
Actelion Java MolfileCreator 2.0

  0  0  0  0  0  0              0 V3000
M  V30 BEGIN CTAB
M  V30 COUNTS 15 16 0 0 0
M  V30 BEGIN ATOM
M  V30 1 Br 0.0 0.0 0.0 0
M  V30 2 C -0.0944 -1.4876 0.0 0
M  V30 3 C 1.157 -2.3022 0.0 0
M  V30 4 C -1.4404 -2.1606 0.0 0
M  V30 5 N 1.0625 -3.7899 0.0 0
M  V30 6 C -1.5348 -3.6364 0.0 0
M  V30 7 C -0.2833 -4.451 0.0 0
M  V30 8 O -2.8808 -4.2976 0.0 0
M  V30 9 C -4.1677 -3.5065 0.0 0
M  V30 10 O -4.1441 -1.9953 0.0 0
M  V30 11 C -5.5018 -4.2149 0.0 0
M  V30 12 O -6.8714 -3.5537 0.0 0
M  V30 13 C -5.7144 -5.6907 0.0 0
M  V30 14 C -7.9104 -4.6281 0.0 0
M  V30 15 C -7.202 -5.9505 0.0 0
M  V30 END ATOM
M  V30 BEGIN BOND
M  V30 1 1 1 2
M  V30 2 2 2 3
M  V30 3 1 2 4
M  V30 4 1 3 5
M  V30 5 2 4 6
M  V30 6 2 5 7
M  V30 7 1 6 8
M  V30 8 1 8 9
M  V30 9 2 9 10
M  V30 10 1 9 11
M  V30 11 1 11 12
M  V30 12 2 11 13
M  V30 13 1 12 14
M  V30 14 1 13 15
M  V30 15 1 6 7
M  V30 16 2 14 15
M  V30 END BOND
M  V30 END CTAB
M  END
>  <Ligand InChI>
InChI=1S/C10H6BrNO3/c11-7-4-8(6-12-5-7)15-10(13)9-2-1-3-14-9/h1-6H

>  <Ligand InChI Key>
HMICIXHTRIFAET-UHFFFAOYSA-N

>  <BindingDB MonomerID>
50208940

>  <Target Name Assigned by Curator or DataSource>
Papain-like protease (PLpro)

>  <Target Source Organism According to Curator or DataSource>


>  <IC50 (nM)>
50

>  <PMID>
17381079

>  <Ligand HET ID in PDB>


>  <PDB ID(s) for Ligand-Target Complex>


>  <PubChem CID>
16203681

>  <PubChem SID>
104085863

>  <ChEMBL ID of Ligand>
CHEMBL222234

>  <DrugBank ID of Ligand>


>  <ZINC ID of Ligand>
ZINC40584836

>  <PDB ID(s) of Target Chain>
1Q2W,1QZ8,1UJ1,1UK2,1UK3,1UK4,1UW7,1WOF,1Z1I,2A5A,2A5I,2A5K,2ACF,2AHM,2ALV,2AMD,2AMQ,2BX3,2BX4,2C3S,2D2D,2DUC,2FAV,2FE8,2FYG,2G9T,2GA6,2GDT,2GRI,2GT7,2GT8,2GTB,2GX4,2GZ7,2GZ8,2GZ9,2H2Z,2HOB,2HSX,2IDY,2JZF,2K7X,2K87,2KAF,2LIZ,2OP9,2RNK,2V6N,2VJ1,2XYQ,2XYR,2XYV,2Z3C,2Z3D,2Z3E,2Z94,2Z9G,2Z9J,2Z9K,2Z9L,2ZU4,2ZU5,3D62,3E91,3E9S,3EA7,3EA8,3EBN,3IWM,3M3V,3MJ5,3R24,3SN8,3SNA,3SNB,3SNC,3SND,3SNE,3SZN,3TIT,3TIU,3TNS,3TNT,3V3M,3VB3,3VB4,3VB5,3VB6,3VB7,4MDS,4MM3,4OVZ,4OW0,5C8S,5C8T,5C8U,5F22,5N19,5N5O,5NFY,5TL6,5TL7,5Y3E,5Y3Q,6LNQ,6LNY,6LO0,6NUR,6NUS,6WCO,6XHL,6XHN,6XHO,6XMK,6XOA

>  <Smiles>
O=C(c1ccco1)Oc1cc(Br)cnc1

$$$$
50208941
Actelion Java MolfileCreator 2.0

  0  0  0  0  0  0              0 V3000
M  V30 BEGIN CTAB
M  V30 COUNTS 19 21 0 0 0
M  V30 BEGIN ATOM
M  V30 1 Cl 0.0 0.0 0.0 0
M  V30 2 C -1.3035 -0.7347 0.0 0
M  V30 3 C -1.3154 -2.2279 0.0 0
M  V30 4 C -2.6071 0.0237 0.0 0
M  V30 5 N -2.6308 -2.9626 0.0 0
M  V30 6 C -3.9106 -0.711 0.0 0
M  V30 7 C -3.9343 -2.2042 0.0 0
M  V30 8 O -5.2142 0.0474 0.0 0
M  V30 9 C -6.5178 -0.6873 0.0 0
M  V30 10 O -6.5296 -2.1686 0.0 0
M  V30 11 C -7.8213 0.0711 0.0 0
M  V30 12 S -9.196 -0.5214 0.0 0
M  V30 13 C -7.9872 1.5642 0.0 0
M  V30 14 C -10.2033 0.6043 0.0 0
M  V30 15 C -9.4567 1.8842 0.0 0
M  V30 16 C -11.7083 0.6162 0.0 0
M  V30 17 C -10.2151 3.1878 0.0 0
M  V30 18 C -12.4667 1.9197 0.0 0
M  V30 19 C -11.7202 3.1996 0.0 0
M  V30 END ATOM
M  V30 BEGIN BOND
M  V30 1 1 1 2
M  V30 2 2 2 3
M  V30 3 1 2 4
M  V30 4 1 3 5
M  V30 5 2 4 6
M  V30 6 2 5 7
M  V30 7 1 6 8
M  V30 8 1 8 9
M  V30 9 2 9 10
M  V30 10 1 9 11
M  V30 11 1 11 12
M  V30 12 2 11 13
M  V30 13 1 12 14
M  V30 14 1 13 15
M  V30 15 1 14 16
M  V30 16 1 15 17
M  V30 17 2 16 18
M  V30 18 2 17 19
M  V30 19 1 6 7
M  V30 20 2 14 15
M  V30 21 1 18 19
M  V30 END BOND
M  V30 END CTAB
M  END
>  <Ligand InChI>
InChI=1S/C14H8ClNO2S/c15-10-6-11(8-16-7-10)18-14(17)13-5-9-3-1-2-4-12(9)19-13/h1-8H

>  <Ligand InChI Key>
MNUHXGJUYTWVLU-UHFFFAOYSA-N

>  <BindingDB MonomerID>
50208941

>  <Target Name Assigned by Curator or DataSource>
Papain-like protease (PLpro)

>  <Target Source Organism According to Curator or DataSource>


>  <IC50 (nM)>
95

>  <PMID>
17381079

>  <Ligand HET ID in PDB>


>  <PDB ID(s) for Ligand-Target Complex>


>  <PubChem CID>
2800273

>  <PubChem SID>
104085864

>  <ChEMBL ID of Ligand>
CHEMBL222893

>  <DrugBank ID of Ligand>


>  <ZINC ID of Ligand>
ZINC00092950

>  <PDB ID(s) of Target Chain>
1Q2W,1QZ8,1UJ1,1UK2,1UK3,1UK4,1UW7,1WOF,1Z1I,2A5A,2A5I,2A5K,2ACF,2AHM,2ALV,2AMD,2AMQ,2BX3,2BX4,2C3S,2D2D,2DUC,2FAV,2FE8,2FYG,2G9T,2GA6,2GDT,2GRI,2GT7,2GT8,2GTB,2GX4,2GZ7,2GZ8,2GZ9,2H2Z,2HOB,2HSX,2IDY,2JZF,2K7X,2K87,2KAF,2LIZ,2OP9,2RNK,2V6N,2VJ1,2XYQ,2XYR,2XYV,2Z3C,2Z3D,2Z3E,2Z94,2Z9G,2Z9J,2Z9K,2Z9L,2ZU4,2ZU5,3D62,3E91,3E9S,3EA7,3EA8,3EBN,3IWM,3M3V,3MJ5,3R24,3SN8,3SNA,3SNB,3SNC,3SND,3SNE,3SZN,3TIT,3TIU,3TNS,3TNT,3V3M,3VB3,3VB4,3VB5,3VB6,3VB7,4MDS,4MM3,4OVZ,4OW0,5C8S,5C8T,5C8U,5F22,5N19,5N5O,5NFY,5TL6,5TL7,5Y3E,5Y3Q,6LNQ,6LNY,6LO0,6NUR,6NUS,6WCO,6XHL,6XHN,6XHO,6XMK,6XOA

>  <Smiles>
O=C(c1cc(cccc2)c2s1)Oc1cc(Cl)cnc1

$$$$
50208942
Actelion Java MolfileCreator 2.0

  0  0  0  0  0  0              0 V3000
M  V30 BEGIN CTAB
M  V30 COUNTS 22 24 0 0 0
M  V30 BEGIN ATOM
M  V30 1 Cl 0.0 0.0 0.0 0
M  V30 2 C -1.3028 -0.7461 0.0 0
M  V30 3 C -1.3146 -2.2385 0.0 0
M  V30 4 C -2.6175 0.0 0.0 0
M  V30 5 N -2.6293 -2.9728 0.0 0
M  V30 6 C -3.9085 -0.7343 0.0 0
M  V30 7 C -3.9322 -2.2148 0.0 0
M  V30 8 O -5.2114 0.0236 0.0 0
M  V30 9 C -6.5142 -0.7106 0.0 0
M  V30 10 O -6.526 -2.1911 0.0 0
M  V30 11 C -7.8171 0.0473 0.0 0
M  V30 12 O -7.9947 1.5397 0.0 0
M  V30 13 C -9.191 -0.5448 0.0 0
M  V30 14 C -9.4634 1.8595 0.0 0
M  V30 15 C -10.1977 0.5803 0.0 0
M  V30 16 C -10.0793 3.2334 0.0 0
M  V30 17 C -9.2147 4.4533 0.0 0
M  V30 18 C -11.5716 3.3992 0.0 0
M  V30 19 C -9.8306 5.8272 0.0 0
M  V30 20 C -12.1994 4.7731 0.0 0
M  V30 21 C -11.3348 5.9931 0.0 0
M  V30 22 Cl -11.9625 7.367 0.0 0
M  V30 END ATOM
M  V30 BEGIN BOND
M  V30 1 1 1 2
M  V30 2 2 2 3
M  V30 3 1 2 4
M  V30 4 1 3 5
M  V30 5 2 4 6
M  V30 6 2 5 7
M  V30 7 1 6 8
M  V30 8 1 8 9
M  V30 9 2 9 10
M  V30 10 1 9 11
M  V30 11 1 11 12
M  V30 12 2 11 13
M  V30 13 1 12 14
M  V30 14 1 13 15
M  V30 15 1 14 16
M  V30 16 2 16 17
M  V30 17 1 16 18
M  V30 18 1 17 19
M  V30 19 2 18 20
M  V30 20 2 19 21
M  V30 21 1 21 22
M  V30 22 1 6 7
M  V30 23 2 14 15
M  V30 24 1 20 21
M  V30 END BOND
M  V30 END CTAB
M  END
>  <Ligand InChI>
InChI=1S/C16H9Cl2NO3/c17-11-3-1-10(2-4-11)14-5-6-15(22-14)16(20)21-13-7-12(18)8-19-9-13/h1-9H

>  <Ligand InChI Key>
UICFGOSRHHZBHZ-UHFFFAOYSA-N

>  <BindingDB MonomerID>
50208942

>  <Target Name Assigned by Curator or DataSource>
Papain-like protease (PLpro)

>  <Target Source Organism According to Curator or DataSource>


>  <IC50 (nM)>
63

>  <PMID>
17381079

>  <Ligand HET ID in PDB>


>  <PDB ID(s) for Ligand-Target Complex>


>  <PubChem CID>
16203797

>  <PubChem SID>
104085865

>  <ChEMBL ID of Ligand>
CHEMBL222769

>  <DrugBank ID of Ligand>


>  <ZINC ID of Ligand>
ZINC40585026

>  <PDB ID(s) of Target Chain>
1Q2W,1QZ8,1UJ1,1UK2,1UK3,1UK4,1UW7,1WOF,1Z1I,2A5A,2A5I,2A5K,2ACF,2AHM,2ALV,2AMD,2AMQ,2BX3,2BX4,2C3S,2D2D,2DUC,2FAV,2FE8,2FYG,2G9T,2GA6,2GDT,2GRI,2GT7,2GT8,2GTB,2GX4,2GZ7,2GZ8,2GZ9,2H2Z,2HOB,2HSX,2IDY,2JZF,2K7X,2K87,2KAF,2LIZ,2OP9,2RNK,2V6N,2VJ1,2XYQ,2XYR,2XYV,2Z3C,2Z3D,2Z3E,2Z94,2Z9G,2Z9J,2Z9K,2Z9L,2ZU4,2ZU5,3D62,3E91,3E9S,3EA7,3EA8,3EBN,3IWM,3M3V,3MJ5,3R24,3SN8,3SNA,3SNB,3SNC,3SND,3SNE,3SZN,3TIT,3TIU,3TNS,3TNT,3V3M,3VB3,3VB4,3VB5,3VB6,3VB7,4MDS,4MM3,4OVZ,4OW0,5C8S,5C8T,5C8U,5F22,5N19,5N5O,5NFY,5TL6,5TL7,5Y3E,5Y3Q,6LNQ,6LNY,6LO0,6NUR,6NUS,6WCO,6XHL,6XHN,6XHO,6XMK,6XOA

>  <Smiles>
O=C(c1ccc(-c(cc2)ccc2Cl)o1)Oc1cc(Cl)cnc1

$$$$
50208944
Actelion Java MolfileCreator 2.0

  0  0  0  0  0  0              0 V3000
M  V30 BEGIN CTAB
M  V30 COUNTS 18 19 0 0 0
M  V30 BEGIN ATOM
M  V30 1 Cl 0.0 0.0 0.0 0
M  V30 2 C -1.3028 -0.7343 0.0 0
M  V30 3 C -1.3146 -2.2266 0.0 0
M  V30 4 C -2.6057 0.0236 0.0 0
M  V30 5 N -2.6293 -2.961 0.0 0
M  V30 6 C -3.9085 -0.7106 0.0 0
M  V30 7 C -3.9322 -2.203 0.0 0
M  V30 8 O -5.2114 0.0473 0.0 0
M  V30 9 C -6.5142 -0.6869 0.0 0
M  V30 10 O -6.526 -2.1674 0.0 0
M  V30 11 C -7.8171 0.071 0.0 0
M  V30 12 C -9.1081 -0.6632 0.0 0
M  V30 13 C -7.8171 1.5752 0.0 0
M  V30 14 C -10.4109 0.0829 0.0 0
M  V30 15 C -9.1199 2.3332 0.0 0
M  V30 16 O -11.7138 -0.6514 0.0 0
M  V30 17 C -10.4228 1.5989 0.0 0
M  V30 18 C -13.0166 0.1065 0.0 0
M  V30 END ATOM
M  V30 BEGIN BOND
M  V30 1 1 1 2
M  V30 2 2 2 3
M  V30 3 1 2 4
M  V30 4 1 3 5
M  V30 5 2 4 6
M  V30 6 2 5 7
M  V30 7 1 6 8
M  V30 8 1 8 9
M  V30 9 2 9 10
M  V30 10 1 9 11
M  V30 11 2 11 12
M  V30 12 1 11 13
M  V30 13 1 12 14
M  V30 14 2 13 15
M  V30 15 1 14 16
M  V30 16 2 14 17
M  V30 17 1 16 18
M  V30 18 1 6 7
M  V30 19 1 15 17
M  V30 END BOND
M  V30 END CTAB
M  END
>  <Ligand InChI>
InChI=1S/C13H10ClNO3/c1-17-11-4-2-3-9(5-11)13(16)18-12-6-10(14)7-15-8-12/h2-8H,1H3

>  <Ligand InChI Key>
UIXQHURPUVBNCZ-UHFFFAOYSA-N

>  <BindingDB MonomerID>
50208944

>  <Target Name Assigned by Curator or DataSource>
Papain-like protease (PLpro)

>  <Target Source Organism According to Curator or DataSource>


>  <IC50 (nM)>
340

>  <PMID>
17381079

>  <Ligand HET ID in PDB>


>  <PDB ID(s) for Ligand-Target Complex>


>  <PubChem CID>
16204324

>  <PubChem SID>
104085867

>  <ChEMBL ID of Ligand>
CHEMBL222735

>  <DrugBank ID of Ligand>


>  <ZINC ID of Ligand>
ZINC40585145

>  <PDB ID(s) of Target Chain>
1Q2W,1QZ8,1UJ1,1UK2,1UK3,1UK4,1UW7,1WOF,1Z1I,2A5A,2A5I,2A5K,2ACF,2AHM,2ALV,2AMD,2AMQ,2BX3,2BX4,2C3S,2D2D,2DUC,2FAV,2FE8,2FYG,2G9T,2GA6,2GDT,2GRI,2GT7,2GT8,2GTB,2GX4,2GZ7,2GZ8,2GZ9,2H2Z,2HOB,2HSX,2IDY,2JZF,2K7X,2K87,2KAF,2LIZ,2OP9,2RNK,2V6N,2VJ1,2XYQ,2XYR,2XYV,2Z3C,2Z3D,2Z3E,2Z94,2Z9G,2Z9J,2Z9K,2Z9L,2ZU4,2ZU5,3D62,3E91,3E9S,3EA7,3EA8,3EBN,3IWM,3M3V,3MJ5,3R24,3SN8,3SNA,3SNB,3SNC,3SND,3SNE,3SZN,3TIT,3TIU,3TNS,3TNT,3V3M,3VB3,3VB4,3VB5,3VB6,3VB7,4MDS,4MM3,4OVZ,4OW0,5C8S,5C8T,5C8U,5F22,5N19,5N5O,5NFY,5TL6,5TL7,5Y3E,5Y3Q,6LNQ,6LNY,6LO0,6NUR,6NUS,6WCO,6XHL,6XHN,6XHO,6XMK,6XOA

>  <Smiles>
COc1cccc(C(Oc2cc(Cl)cnc2)=O)c1

$$$$
50208943
Actelion Java MolfileCreator 2.0

  0  0  0  0  0  0              0 V3000
M  V30 BEGIN CTAB
M  V30 COUNTS 19 21 0 0 0
M  V30 BEGIN ATOM
M  V30 1 Cl 0.0 0.0 0.0 0
M  V30 2 C -1.3033 -0.7464 0.0 0
M  V30 3 C -1.3151 -2.2393 0.0 0
M  V30 4 C -2.6066 0.0118 0.0 0
M  V30 5 N -2.6303 -2.9739 0.0 0
M  V30 6 C -3.9099 -0.7227 0.0 0
M  V30 7 C -3.9336 -2.2156 0.0 0
M  V30 8 O -5.2132 0.0355 0.0 0
M  V30 9 C -6.5166 -0.699 0.0 0
M  V30 10 O -6.5284 -2.18 0.0 0
M  V30 11 C -7.8199 0.0592 0.0 0
M  V30 12 O -9.1943 -0.5331 0.0 0
M  V30 13 C -7.9857 1.5521 0.0 0
M  V30 14 C -10.2014 0.5924 0.0 0
M  V30 15 C -9.4549 1.872 0.0 0
M  V30 16 C -11.7061 0.6042 0.0 0
M  V30 17 C -10.2132 3.1753 0.0 0
M  V30 18 C -12.4644 1.9075 0.0 0
M  V30 19 C -11.718 3.1872 0.0 0
M  V30 END ATOM
M  V30 BEGIN BOND
M  V30 1 1 1 2
M  V30 2 2 2 3
M  V30 3 1 2 4
M  V30 4 1 3 5
M  V30 5 2 4 6
M  V30 6 2 5 7
M  V30 7 1 6 8
M  V30 8 1 8 9
M  V30 9 2 9 10
M  V30 10 1 9 11
M  V30 11 1 11 12
M  V30 12 2 11 13
M  V30 13 1 12 14
M  V30 14 1 13 15
M  V30 15 1 14 16
M  V30 16 1 15 17
M  V30 17 2 16 18
M  V30 18 2 17 19
M  V30 19 1 6 7
M  V30 20 2 14 15
M  V30 21 1 18 19
M  V30 END BOND
M  V30 END CTAB
M  END
>  <Ligand InChI>
InChI=1S/C14H8ClNO3/c15-10-6-11(8-16-7-10)18-14(17)13-5-9-3-1-2-4-12(9)19-13/h1-8H

>  <Ligand InChI Key>
QHBWMDVARYUYJW-UHFFFAOYSA-N

>  <BindingDB MonomerID>
50208943

>  <Target Name Assigned by Curator or DataSource>
Papain-like protease (PLpro)

>  <Target Source Organism According to Curator or DataSource>


>  <IC50 (nM)>
170

>  <PMID>
17381079

>  <Ligand HET ID in PDB>


>  <PDB ID(s) for Ligand-Target Complex>


>  <PubChem CID>
16204318

>  <PubChem SID>
104085866

>  <ChEMBL ID of Ligand>
CHEMBL426898

>  <DrugBank ID of Ligand>


>  <ZINC ID of Ligand>
ZINC40812413

>  <PDB ID(s) of Target Chain>
1Q2W,1QZ8,1UJ1,1UK2,1UK3,1UK4,1UW7,1WOF,1Z1I,2A5A,2A5I,2A5K,2ACF,2AHM,2ALV,2AMD,2AMQ,2BX3,2BX4,2C3S,2D2D,2DUC,2FAV,2FE8,2FYG,2G9T,2GA6,2GDT,2GRI,2GT7,2GT8,2GTB,2GX4,2GZ7,2GZ8,2GZ9,2H2Z,2HOB,2HSX,2IDY,2JZF,2K7X,2K87,2KAF,2LIZ,2OP9,2RNK,2V6N,2VJ1,2XYQ,2XYR,2XYV,2Z3C,2Z3D,2Z3E,2Z94,2Z9G,2Z9J,2Z9K,2Z9L,2ZU4,2ZU5,3D62,3E91,3E9S,3EA7,3EA8,3EBN,3IWM,3M3V,3MJ5,3R24,3SN8,3SNA,3SNB,3SNC,3SND,3SNE,3SZN,3TIT,3TIU,3TNS,3TNT,3V3M,3VB3,3VB4,3VB5,3VB6,3VB7,4MDS,4MM3,4OVZ,4OW0,5C8S,5C8T,5C8U,5F22,5N19,5N5O,5NFY,5TL6,5TL7,5Y3E,5Y3Q,6LNQ,6LNY,6LO0,6NUR,6NUS,6WCO,6XHL,6XHN,6XHO,6XMK,6XOA

>  <Smiles>
O=C(c1cc(cccc2)c2o1)Oc1cc(Cl)cnc1

$$$$
51317
Actelion Java MolfileCreator 2.0

  0  0  0  0  0  0              0 V3000
M  V30 BEGIN CTAB
M  V30 COUNTS 21 24 0 0 0
M  V30 BEGIN ATOM
M  V30 1 O 0.0 0.0 0.0 0
M  V30 2 C 1.2627 -0.7215 0.0 0
M  V30 3 C 1.2506 -2.1766 0.0 0
M  V30 4 C 2.5254 0.024 0.0 0
M  V30 5 C -0.0962 -2.9102 0.0 0
M  V30 6 C 2.5133 -2.8982 0.0 0
M  V30 7 O 2.5133 1.5032 0.0 0
M  V30 8 C 3.7881 -0.6974 0.0 0
M  V30 9 C -0.1202 -4.4254 0.0 0
M  V30 10 C -1.4671 -2.0684 0.0 0
M  V30 11 C 3.776 -2.1526 0.0 0
M  V30 12 C 2.5254 -4.4134 0.0 0
M  V30 13 C 5.159 -0.2405 0.0 0
M  V30 14 C -1.5032 -5.2191 0.0 0
M  V30 15 C 1.1905 -5.171 0.0 0
M  V30 16 C -2.8741 -2.826 0.0 0
M  V30 17 O 5.147 -2.5855 0.0 0
M  V30 18 C 6.0008 -1.407 0.0 0
M  V30 19 C 5.604 1.1664 0.0 0
M  V30 20 C -2.8982 -4.4134 0.0 0
M  V30 21 C -1.5152 -6.6743 0.0 0
M  V30 END ATOM
M  V30 BEGIN BOND
M  V30 1 2 1 2
M  V30 2 1 2 3
M  V30 3 1 2 4
M  V30 4 1 3 5
M  V30 5 2 3 6
M  V30 6 2 4 7
M  V30 7 1 4 8
M  V30 8 1 5 9
M  V30 9 2 5 10
M  V30 10 1 6 11
M  V30 11 1 6 12
M  V30 12 1 8 13
M  V30 13 2 9 14
M  V30 14 1 9 15
M  V30 15 1 10 16
M  V30 16 1 11 17
M  V30 17 2 13 18
M  V30 18 1 13 19
M  V30 19 1 14 20
M  V30 20 1 14 21
M  V30 21 2 8 11
M  V30 22 2 12 15
M  V30 23 2 16 20
M  V30 24 1 17 18
M  V30 END BOND
M  V30 END CTAB
M  END
>  <Ligand InChI>
InChI=1S/C18H12O3/c1-9-4-3-5-12-11(9)6-7-13-15(12)17(20)16(19)14-10(2)8-21-18(13)14/h3-8H,1-2H3

>  <Ligand InChI Key>
AIGAZQPHXLWMOJ-UHFFFAOYSA-N

>  <BindingDB MonomerID>
51317

>  <Target Name Assigned by Curator or DataSource>
Papain-like protease (PLpro)

>  <Target Source Organism According to Curator or DataSource>


>  <IC50 (nM)>
700

>  <PMID>
22884354

>  <Ligand HET ID in PDB>


>  <PDB ID(s) for Ligand-Target Complex>


>  <PubChem CID>
114917

>  <PubChem SID>
252631541

>  <ChEMBL ID of Ligand>


>  <DrugBank ID of Ligand>


>  <ZINC ID of Ligand>
ZINC06663580

>  <PDB ID(s) of Target Chain>
1Q2W,1QZ8,1UJ1,1UK2,1UK3,1UK4,1UW7,1WOF,1Z1I,2A5A,2A5I,2A5K,2ACF,2AHM,2ALV,2AMD,2AMQ,2BX3,2BX4,2C3S,2D2D,2DUC,2FAV,2FE8,2FYG,2G9T,2GA6,2GDT,2GRI,2GT7,2GT8,2GTB,2GX4,2GZ7,2GZ8,2GZ9,2H2Z,2HOB,2HSX,2IDY,2JZF,2K7X,2K87,2KAF,2LIZ,2OP9,2RNK,2V6N,2VJ1,2XYQ,2XYR,2XYV,2Z3C,2Z3D,2Z3E,2Z94,2Z9G,2Z9J,2Z9K,2Z9L,2ZU4,2ZU5,3D62,3E91,3E9S,3EA7,3EA8,3EBN,3IWM,3M3V,3MJ5,3R24,3SN8,3SNA,3SNB,3SNC,3SND,3SNE,3SZN,3TIT,3TIU,3TNS,3TNT,3V3M,3VB3,3VB4,3VB5,3VB6,3VB7,4MDS,4MM3,4OVZ,4OW0,5C8S,5C8T,5C8U,5F22,5N19,5N5O,5NFY,5TL6,5TL7,5Y3E,5Y3Q,6LNQ,6LNY,6LO0,6NUR,6NUS,6WCO,6XHL,6XHN,6XHO,6XMK,6XOA

>  <Smiles>
Cc1coc(-c(ccc2c(C)cccc22)c2C2=O)c1C2=O

$$$$
50458466
Actelion Java MolfileCreator 2.0

  0  0  0  0  0  0              0 V3000
M  V30 BEGIN CTAB
M  V30 COUNTS 44 45 0 0 0
M  V30 BEGIN ATOM
M  V30 1 S 0.0 0.0 0.0 0
M  V30 2 O -1.31 0.7553 0.0 0
M  V30 3 O -0.0118 1.5106 0.0 0
M  V30 4 O 0.7317 -1.2863 0.0 0 CHG=-1
M  V30 5 C 0.7317 1.2981 0.0 0
M  V30 6 O 2.2187 1.31 0.0 0
M  V30 7 C -0.0236 2.6082 0.0 0 CFG=2
M  V30 8 N -1.5342 2.62 0.0 0
M  V30 9 C 0.7081 3.9182 0.0 0
M  V30 10 C -2.3013 1.3336 0.0 0
M  V30 11 C 2.1951 3.93 0.0 0 CFG=2
M  V30 12 O -1.5578 0.0472 0.0 0
M  V30 13 C -3.8119 1.3454 0.0 0 CFG=2
M  V30 14 C 3.0684 5.1455 0.0 0
M  V30 15 C 3.0684 2.7262 0.0 0
M  V30 16 N -4.5673 2.6554 0.0 0
M  V30 17 C -4.5673 0.059 0.0 0
M  V30 18 O 2.5845 6.5854 0.0 0
M  V30 19 N 4.4846 4.6971 0.0 0
M  V30 20 C 4.4846 3.1982 0.0 0
M  V30 21 C -6.0779 2.6672 0.0 0
M  V30 22 C -3.8355 -1.2273 0.0 0
M  V30 23 O -6.845 1.3808 0.0 0
M  V30 24 O -6.845 3.9772 0.0 0
M  V30 25 C -2.3485 -1.2155 0.0 0
M  V30 26 C -4.5909 -2.5137 0.0 0
M  V30 27 C -8.3556 3.989 0.0 0
M  V30 28 C -8.1078 5.476 0.0 0
M  V30 29 C -9.7719 3.4815 0.0 0
M  V30 30 C -8.1078 2.5255 0.0 0
M  V30 31 C -9.2526 6.4437 0.0 0
M  V30 32 C -10.9402 4.461 0.0 0
M  V30 33 C -9.2526 1.5696 0.0 0
M  V30 34 N -10.6806 5.9481 0.0 0
M  V30 35 C -10.6806 2.0889 0.0 0
M  V30 36 C -9.0047 0.1062 0.0 0
M  V30 37 S -11.8372 6.9276 0.0 0
M  V30 38 C -11.8372 1.1447 0.0 0
M  V30 39 C -10.1731 -0.8497 0.0 0
M  V30 40 O -13.2534 6.4319 0.0 0
M  V30 41 O -12.6043 5.653 0.0 0
M  V30 42 C -11.5893 8.4028 0.0 0
M  V30 43 C -11.5893 -0.3186 0.0 0
M  V30 44 Na 7.9308 5.476 0.0 0 CHG=1 VAL=-1
M  V30 END ATOM
M  V30 BEGIN BOND
M  V30 1 2 1 2
M  V30 2 2 1 3
M  V30 3 1 1 4
M  V30 4 1 1 5
M  V30 5 1 5 6
M  V30 6 1 5 7
M  V30 7 1 7 8 CFG=3
M  V30 8 1 7 9
M  V30 9 1 8 10
M  V30 10 1 11 9 CFG=3
M  V30 11 2 10 12
M  V30 12 1 10 13
M  V30 13 1 11 14
M  V30 14 1 11 15
M  V30 15 1 13 16 CFG=1
M  V30 16 1 13 17
M  V30 17 2 14 18
M  V30 18 1 14 19
M  V30 19 1 15 20
M  V30 20 1 16 21
M  V30 21 1 17 22
M  V30 22 2 21 23
M  V30 23 1 21 24
M  V30 24 1 22 25
M  V30 25 1 22 26
M  V30 26 1 24 27
M  V30 27 1 27 28
M  V30 28 1 27 29
M  V30 29 1 27 30
M  V30 30 1 28 31
M  V30 31 1 29 32
M  V30 32 1 30 33
M  V30 33 1 31 34
M  V30 34 2 33 35
M  V30 35 1 33 36
M  V30 36 1 34 37
M  V30 37 1 35 38
M  V30 38 2 36 39
M  V30 39 2 37 40
M  V30 40 2 37 41
M  V30 41 1 37 42
M  V30 42 2 38 43
M  V30 43 1 19 20
M  V30 44 1 32 34
M  V30 45 1 39 43
M  V30 END BOND
M  V30 BEGIN COLLECTION
M  V30 MDLV30/STERAC1 ATOMS=(3 7 11 13)
M  V30 END COLLECTION
M  V30 END CTAB
M  END
>  <Ligand InChI>
InChI=1S/C27H42N4O10S2.Na/c1-18(2)15-21(24(33)29-22(25(34)43(38,39)40)16-20-9-12-28-23(20)32)30-26(35)41-27(17-19-7-5-4-6-8-19)10-13-31(14-11-27)42(3,36)37;/h4-8,18,20-22,25,34H,9-17H2,1-3H3,(H,28,32)(H,29,33)(H,30,35)(H,38,39,40);/q;+1/p-1/t20-,21-,22-,25?;/m0./s1

>  <Ligand InChI Key>
PVFOFJYHUDKJAA-FLABFKKQSA-M

>  <BindingDB MonomerID>
50458466

>  <Target Name Assigned by Curator or DataSource>
3C-like proteinase (3CL-PRO)

>  <Target Source Organism According to Curator or DataSource>
Human SARS coronavirus

>  <IC50 (nM)>
4300

>  <PMID>
29544147

>  <Ligand HET ID in PDB>


>  <PDB ID(s) for Ligand-Target Complex>


>  <PubChem CID>


>  <PubChem SID>


>  <ChEMBL ID of Ligand>


>  <DrugBank ID of Ligand>


>  <ZINC ID of Ligand>


>  <PDB ID(s) of Target Chain>
1Q2W,1QZ8,1UJ1,1UK2,1UK3,1UK4,1UW7,1WOF,1Z1I,2A5A,2A5I,2A5K,2ACF,2AHM,2ALV,2AMD,2AMQ,2BX3,2BX4,2C3S,2D2D,2DUC,2FAV,2FE8,2FYG,2G9T,2GA6,2GDT,2GRI,2GT7,2GT8,2GTB,2GX4,2GZ7,2GZ8,2GZ9,2H2Z,2HOB,2HSX,2IDY,2JZF,2K7X,2K87,2KAF,2LIZ,2OP9,2OZK,2RNK,2V6N,2VJ1,2XYQ,2XYR,2XYV,2Z3C,2Z3D,2Z3E,2Z94,2Z9G,2Z9J,2Z9K,2Z9L,2ZU4,2ZU5,3D62,3E91,3E9S,3EA7,3EA8,3EBN,3IWM,3M3V,3MJ5,3R24,3SN8,3SNA,3SNB,3SNC,3SND,3SNE,3SZN,3TIT,3TIU,3TNS,3TNT,3V3M,3VB3,3VB4,3VB5,3VB6,3VB7,4MDS,4MM3,4OVZ,4OW0,5C8S,5C8T,5C8U,5F22,5N19,5N5O,5NFY,5TL6,5TL7,5Y3E,5Y3Q,6JYT,6LNQ,6LNY,6LO0,6NUR,6NUS,6W2A,6W79,6WCO,6XHL,6XHN,6XHO,6XMK,6XOA,7C2K

>  <Smiles>
CC(C)C[C@H](C(N[C@H](C[C@@H](CCN1)C1=O)C(O)S([O-])(=O)=O)=O)NC(OC(Cc1ccccc1)(CC1)CCN1S(C)(=O)=O)=O.[Na+]

$$$$
50458468
Actelion Java MolfileCreator 2.0

  0  0  0  0  0  0              0 V3000
M  V30 BEGIN CTAB
M  V30 COUNTS 42 42 0 0 0
M  V30 BEGIN ATOM
M  V30 1 S 0.0 0.0 0.0 0
M  V30 2 O -0.0207 1.5162 0.0 0
M  V30 3 O 1.267 0.7685 0.0 0
M  V30 4 O -0.7685 1.3085 0.0 0 CHG=-1
M  V30 5 C -0.7685 -1.2878 0.0 0
M  V30 6 O -2.2848 -1.267 0.0 0
M  V30 7 C -0.0415 -2.5756 0.0 0 CFG=2
M  V30 8 N 1.4332 -2.5548 0.0 0
M  V30 9 C -0.81 -3.8634 0.0 0
M  V30 10 C 2.1601 -1.2254 0.0 0
M  V30 11 C -2.3263 -3.8426 0.0 0 CFG=2
M  V30 12 O 1.3916 0.1038 0.0 0
M  V30 13 C 3.6349 -1.2047 0.0 0 CFG=2
M  V30 14 C -3.2195 -5.0266 0.0 0
M  V30 15 C -3.2195 -2.5963 0.0 0
M  V30 16 N 4.3619 -2.4925 0.0 0
M  V30 17 C 4.3619 0.1246 0.0 0
M  V30 18 O -2.7833 -6.439 0.0 0
M  V30 19 N -4.6735 -4.5488 0.0 0
M  V30 20 C -4.6735 -3.0533 0.0 0
M  V30 21 C 5.8366 -2.4717 0.0 0
M  V30 22 C 3.5934 1.4332 0.0 0
M  V30 23 O 6.5636 -1.1424 0.0 0
M  V30 24 O 6.5636 -3.7595 0.0 0
M  V30 25 C 2.0771 1.4539 0.0 0
M  V30 26 C 4.3203 2.7625 0.0 0
M  V30 27 C 8.0384 -3.7388 0.0 0
M  V30 28 C 7.7684 -2.2432 0.0 0
M  V30 29 C 9.4301 -4.2165 0.0 0
M  V30 30 C 7.7684 -5.1927 0.0 0
M  V30 31 C 8.89 -1.2462 0.0 0
M  V30 32 C 10.5725 -3.2402 0.0 0
M  V30 33 C 6.3352 -5.6912 0.0 0
M  V30 34 N 10.2817 -1.7447 0.0 0
M  V30 35 C 11.4033 -0.7685 0.0 0
M  V30 36 O 11.1333 0.7269 0.0 0
M  V30 37 O 12.795 -1.267 0.0 0
M  V30 38 C 13.9166 -0.2907 0.0 0
M  V30 39 C 15.3083 -0.7893 0.0 0
M  V30 40 C 13.6466 1.2047 0.0 0
M  V30 41 C 14.519 -1.6409 0.0 0
M  V30 42 Na 20.9373 2.1601 0.0 0 CHG=1 VAL=-1
M  V30 END ATOM
M  V30 BEGIN BOND
M  V30 1 2 1 2
M  V30 2 2 1 3
M  V30 3 1 1 4
M  V30 4 1 1 5
M  V30 5 1 5 6
M  V30 6 1 5 7
M  V30 7 1 7 8 CFG=3
M  V30 8 1 7 9
M  V30 9 1 8 10
M  V30 10 1 11 9 CFG=3
M  V30 11 2 10 12
M  V30 12 1 10 13
M  V30 13 1 11 14
M  V30 14 1 11 15
M  V30 15 1 13 16 CFG=1
M  V30 16 1 13 17
M  V30 17 2 14 18
M  V30 18 1 14 19
M  V30 19 1 15 20
M  V30 20 1 16 21
M  V30 21 1 17 22
M  V30 22 2 21 23
M  V30 23 1 21 24
M  V30 24 1 22 25
M  V30 25 1 22 26
M  V30 26 1 24 27
M  V30 27 1 27 28
M  V30 28 1 27 29
M  V30 29 1 27 30
M  V30 30 1 28 31
M  V30 31 1 29 32
M  V30 32 1 30 33
M  V30 33 1 31 34
M  V30 34 1 34 35
M  V30 35 2 35 36
M  V30 36 1 35 37
M  V30 37 1 37 38
M  V30 38 1 38 39
M  V30 39 1 38 40
M  V30 40 1 38 41
M  V30 41 1 19 20
M  V30 42 1 32 34
M  V30 END BOND
M  V30 BEGIN COLLECTION
M  V30 MDLV30/STERAC1 ATOMS=(3 7 11 13)
M  V30 END COLLECTION
M  V30 END CTAB
M  END
>  <Ligand InChI>
InChI=1S/C26H46N4O10S.Na/c1-7-26(9-12-30(13-10-26)24(35)40-25(4,5)6)39-23(34)29-18(14-16(2)3)21(32)28-19(22(33)41(36,37)38)15-17-8-11-27-20(17)31;/h16-19,22,33H,7-15H2,1-6H3,(H,27,31)(H,28,32)(H,29,34)(H,36,37,38);/q;+1/p-1/t17-,18-,19-,22?;/m0./s1

>  <Ligand InChI Key>
LSFQRCABQFHJEZ-FIGVUBRSSA-M

>  <BindingDB MonomerID>
50458468

>  <Target Name Assigned by Curator or DataSource>
3C-like proteinase (3CL-PRO)

>  <Target Source Organism According to Curator or DataSource>
Human SARS coronavirus

>  <IC50 (nM)>
4100

>  <PMID>
29544147

>  <Ligand HET ID in PDB>


>  <PDB ID(s) for Ligand-Target Complex>


>  <PubChem CID>


>  <PubChem SID>


>  <ChEMBL ID of Ligand>


>  <DrugBank ID of Ligand>


>  <ZINC ID of Ligand>


>  <PDB ID(s) of Target Chain>
1Q2W,1QZ8,1UJ1,1UK2,1UK3,1UK4,1UW7,1WOF,1Z1I,2A5A,2A5I,2A5K,2ACF,2AHM,2ALV,2AMD,2AMQ,2BX3,2BX4,2C3S,2D2D,2DUC,2FAV,2FE8,2FYG,2G9T,2GA6,2GDT,2GRI,2GT7,2GT8,2GTB,2GX4,2GZ7,2GZ8,2GZ9,2H2Z,2HOB,2HSX,2IDY,2JZF,2K7X,2K87,2KAF,2LIZ,2OP9,2OZK,2RNK,2V6N,2VJ1,2XYQ,2XYR,2XYV,2Z3C,2Z3D,2Z3E,2Z94,2Z9G,2Z9J,2Z9K,2Z9L,2ZU4,2ZU5,3D62,3E91,3E9S,3EA7,3EA8,3EBN,3IWM,3M3V,3MJ5,3R24,3SN8,3SNA,3SNB,3SNC,3SND,3SNE,3SZN,3TIT,3TIU,3TNS,3TNT,3V3M,3VB3,3VB4,3VB5,3VB6,3VB7,4MDS,4MM3,4OVZ,4OW0,5C8S,5C8T,5C8U,5F22,5N19,5N5O,5NFY,5TL6,5TL7,5Y3E,5Y3Q,6JYT,6LNQ,6LNY,6LO0,6NUR,6NUS,6W2A,6W79,6WCO,6XHL,6XHN,6XHO,6XMK,6XOA,7C2K

>  <Smiles>
CCC(CC1)(CCN1C(OC(C)(C)C)=O)OC(N[C@H](CC(C)C)C(N[C@H](C[C@@H](CCN1)C1=O)C(O)S([O-])(=O)=O)=O)=O.[Na+]

$$$$
50458462
Actelion Java MolfileCreator 2.0

  0  0  0  0  0  0              0 V3000
M  V30 BEGIN CTAB
M  V30 COUNTS 35 36 0 0 0
M  V30 BEGIN ATOM
M  V30 1 O 0.0 0.0 0.0 0
M  V30 2 C 0.447 1.4351 0.0 0
M  V30 3 N 1.8585 1.9056 0.0 0
M  V30 4 C -0.4352 2.6584 0.0 0 CFG=2
M  V30 5 C 1.8468 3.4113 0.0 0
M  V30 6 C 0.4234 3.8818 0.0 0
M  V30 7 C -1.9409 2.6702 0.0 0
M  V30 8 C -2.7055 3.9759 0.0 0 CFG=1
M  V30 9 N -4.2112 3.9877 0.0 0
M  V30 10 C -1.9644 5.2816 0.0 0
M  V30 11 C -4.964 5.2934 0.0 0
M  V30 12 O -2.729 6.5874 0.0 0
M  V30 13 O -4.2347 6.5991 0.0 0
M  V30 14 C -6.4697 5.3052 0.0 0 CFG=2
M  V30 15 N -7.2343 4.023 0.0 0
M  V30 16 C -7.2343 6.6109 0.0 0
M  V30 17 C -6.4933 2.7408 0.0 0
M  V30 18 C -8.74 6.6226 0.0 0
M  V30 19 O -5.0111 2.7525 0.0 0
M  V30 20 O -7.2579 1.4586 0.0 0
M  V30 21 C -9.4929 5.3405 0.0 0
M  V30 22 C -9.4929 7.9284 0.0 0
M  V30 23 C -8.7636 1.4704 0.0 0
M  V30 24 C -9.5164 2.7761 0.0 0
M  V30 25 C -9.5164 0.1882 0.0 0
M  V30 26 C -11.0221 2.7878 0.0 0
M  V30 27 C -11.0221 0.1999 0.0 0
M  V30 28 N -11.7867 1.5056 0.0 0
M  V30 29 C -13.2924 1.5174 0.0 0
M  V30 30 O -14.0452 2.8231 0.0 0
M  V30 31 O -14.0452 0.2352 0.0 0
M  V30 32 C -15.5509 0.247 0.0 0
M  V30 33 C -16.3038 1.5409 0.0 0
M  V30 34 C -16.3038 -1.0234 0.0 0
M  V30 35 C -15.1745 1.6939 0.0 0
M  V30 END ATOM
M  V30 BEGIN BOND
M  V30 1 2 1 2
M  V30 2 1 2 3
M  V30 3 1 2 4
M  V30 4 1 3 5
M  V30 5 1 4 6
M  V30 6 1 4 7 CFG=1
M  V30 7 1 7 8
M  V30 8 1 8 9 CFG=1
M  V30 9 1 8 10
M  V30 10 1 9 11
M  V30 11 2 10 12
M  V30 12 2 11 13
M  V30 13 1 11 14
M  V30 14 1 14 15 CFG=3
M  V30 15 1 14 16
M  V30 16 1 15 17
M  V30 17 1 16 18
M  V30 18 2 17 19
M  V30 19 1 17 20
M  V30 20 1 18 21
M  V30 21 1 18 22
M  V30 22 1 20 23
M  V30 23 1 23 24
M  V30 24 1 23 25
M  V30 25 1 24 26
M  V30 26 1 25 27
M  V30 27 1 26 28
M  V30 28 1 28 29
M  V30 29 2 29 30
M  V30 30 1 29 31
M  V30 31 1 31 32
M  V30 32 1 32 33
M  V30 33 1 32 34
M  V30 34 1 32 35
M  V30 35 1 5 6
M  V30 36 1 27 28
M  V30 END BOND
M  V30 BEGIN COLLECTION
M  V30 MDLV30/STERAC1 ATOMS=(3 4 8 14)
M  V30 END COLLECTION
M  V30 END CTAB
M  END
>  <Ligand InChI>
InChI=1S/C24H40N4O7/c1-15(2)12-19(21(31)26-17(14-29)13-16-6-9-25-20(16)30)27-22(32)34-18-7-10-28(11-8-18)23(33)35-24(3,4)5/h14-19H,6-13H2,1-5H3,(H,25,30)(H,26,31)(H,27,32)/t16-,17-,19-/m0/s1

>  <Ligand InChI Key>
SBHUNCJSGGMNPS-LNLFQRSKSA-N

>  <BindingDB MonomerID>
50458462

>  <Target Name Assigned by Curator or DataSource>
3C-like proteinase (3CL-PRO)

>  <Target Source Organism According to Curator or DataSource>
Human SARS coronavirus

>  <IC50 (nM)>
2100

>  <PMID>
29544147

>  <Ligand HET ID in PDB>


>  <PDB ID(s) for Ligand-Target Complex>


>  <PubChem CID>


>  <PubChem SID>


>  <ChEMBL ID of Ligand>


>  <DrugBank ID of Ligand>


>  <ZINC ID of Ligand>


>  <PDB ID(s) of Target Chain>
1Q2W,1QZ8,1UJ1,1UK2,1UK3,1UK4,1UW7,1WOF,1Z1I,2A5A,2A5I,2A5K,2ACF,2AHM,2ALV,2AMD,2AMQ,2BX3,2BX4,2C3S,2D2D,2DUC,2FAV,2FE8,2FYG,2G9T,2GA6,2GDT,2GRI,2GT7,2GT8,2GTB,2GX4,2GZ7,2GZ8,2GZ9,2H2Z,2HOB,2HSX,2IDY,2JZF,2K7X,2K87,2KAF,2LIZ,2OP9,2OZK,2RNK,2V6N,2VJ1,2XYQ,2XYR,2XYV,2Z3C,2Z3D,2Z3E,2Z94,2Z9G,2Z9J,2Z9K,2Z9L,2ZU4,2ZU5,3D62,3E91,3E9S,3EA7,3EA8,3EBN,3IWM,3M3V,3MJ5,3R24,3SN8,3SNA,3SNB,3SNC,3SND,3SNE,3SZN,3TIT,3TIU,3TNS,3TNT,3V3M,3VB3,3VB4,3VB5,3VB6,3VB7,4MDS,4MM3,4OVZ,4OW0,5C8S,5C8T,5C8U,5F22,5N19,5N5O,5NFY,5TL6,5TL7,5Y3E,5Y3Q,6JYT,6LNQ,6LNY,6LO0,6NUR,6NUS,6W2A,6W79,6WCO,6XHL,6XHN,6XHO,6XMK,6XOA,7C2K

>  <Smiles>
CC(C)C[C@H](C(N[C@H](C[C@@H](CCN1)C1=O)C=O)=O)NC(OC(CC1)CCN1C(OC(C)(C)C)=O)=O

$$$$
50458473
Actelion Java MolfileCreator 2.0

  0  0  0  0  0  0              0 V3000
M  V30 BEGIN CTAB
M  V30 COUNTS 39 41 0 0 0
M  V30 BEGIN ATOM
M  V30 1 S 0.0 0.0 0.0 0
M  V30 2 O -1.4244 -0.4985 0.0 0
M  V30 3 O -0.7715 -1.2819 0.0 0
M  V30 4 N 1.1395 -0.9614 0.0 0
M  V30 5 C 0.2492 1.4837 0.0 0
M  V30 6 C 2.5521 -0.4392 0.0 0
M  V30 7 C 0.8665 -2.4334 0.0 0
M  V30 8 C 3.6797 -1.3888 0.0 0
M  V30 9 C 2.0179 -3.3949 0.0 0
M  V30 10 C 3.4067 -2.8607 0.0 0
M  V30 11 O 4.9024 -2.8488 0.0 0
M  V30 12 C 3.656 -4.3326 0.0 0
M  V30 13 C 5.6502 -4.1427 0.0 0
M  V30 14 C 2.5046 -5.2941 0.0 0
M  V30 15 O 4.8786 -5.4366 0.0 0
M  V30 16 N 7.1459 -4.1308 0.0 0
M  V30 17 C 1.0683 -4.7718 0.0 0
M  V30 18 C 2.7539 -6.766 0.0 0
M  V30 19 C 7.8818 -5.4247 0.0 0 CFG=1
M  V30 20 C -0.0949 -5.7214 0.0 0
M  V30 21 C 1.5787 -7.7275 0.0 0
M  V30 22 C 9.3775 -5.4128 0.0 0
M  V30 23 C 7.1221 -6.7185 0.0 0
M  V30 24 C 0.1543 -7.1934 0.0 0
M  V30 25 O 10.1253 -6.7067 0.0 0
M  V30 26 N 10.1253 -4.0952 0.0 0
M  V30 27 C 7.8581 -8.0124 0.0 0
M  V30 28 C 11.621 -4.0833 0.0 0 CFG=1
M  V30 29 C 9.3538 -8.0005 0.0 0
M  V30 30 C 7.0984 -9.3063 0.0 0
M  V30 31 C 12.3569 -5.3772 0.0 0
M  V30 32 C 12.3569 -2.7657 0.0 0
M  V30 33 O 13.8526 -5.3653 0.0 0
M  V30 34 C 13.8526 -2.7539 0.0 0 CFG=2
M  V30 35 C 14.731 -1.5312 0.0 0
M  V30 36 C 14.731 -3.9646 0.0 0
M  V30 37 O 14.2443 -0.083 0.0 0
M  V30 38 N 16.1554 -1.9823 0.0 0
M  V30 39 C 16.1554 -3.4898 0.0 0
M  V30 END ATOM
M  V30 BEGIN BOND
M  V30 1 2 1 2
M  V30 2 2 1 3
M  V30 3 1 1 4
M  V30 4 1 1 5
M  V30 5 1 4 6
M  V30 6 1 4 7
M  V30 7 1 6 8
M  V30 8 1 7 9
M  V30 9 1 8 10
M  V30 10 1 10 11
M  V30 11 1 10 12
M  V30 12 1 11 13
M  V30 13 1 12 14
M  V30 14 2 13 15
M  V30 15 1 13 16
M  V30 16 2 14 17
M  V30 17 1 14 18
M  V30 18 1 19 16 CFG=1
M  V30 19 1 17 20
M  V30 20 2 18 21
M  V30 21 1 19 22
M  V30 22 1 19 23
M  V30 23 2 20 24
M  V30 24 2 22 25
M  V30 25 1 22 26
M  V30 26 1 23 27
M  V30 27 1 28 26 CFG=3
M  V30 28 1 27 29
M  V30 29 1 27 30
M  V30 30 1 28 31
M  V30 31 1 28 32
M  V30 32 2 31 33
M  V30 33 1 34 32 CFG=3
M  V30 34 1 34 35
M  V30 35 1 34 36
M  V30 36 2 35 37
M  V30 37 1 35 38
M  V30 38 1 36 39
M  V30 39 1 9 10
M  V30 40 1 21 24
M  V30 41 1 38 39
M  V30 END BOND
M  V30 BEGIN COLLECTION
M  V30 MDLV30/STERAC1 ATOMS=(3 19 28 34)
M  V30 END COLLECTION
M  V30 END CTAB
M  END
>  <Ligand InChI>
InChI=1S/C27H40N4O7S/c1-19(2)15-23(25(34)29-22(18-32)16-21-9-12-28-24(21)33)30-26(35)38-27(17-20-7-5-4-6-8-20)10-13-31(14-11-27)39(3,36)37/h4-8,18-19,21-23H,9-17H2,1-3H3,(H,28,33)(H,29,34)(H,30,35)/t21-,22-,23-/m0/s1

>  <Ligand InChI Key>
ZLOZUJAXLMKVNG-VABKMULXSA-N

>  <BindingDB MonomerID>
50458473

>  <Target Name Assigned by Curator or DataSource>
3C-like proteinase (3CL-PRO)

>  <Target Source Organism According to Curator or DataSource>
Human SARS coronavirus

>  <IC50 (nM)>
3900

>  <PMID>
29544147

>  <Ligand HET ID in PDB>


>  <PDB ID(s) for Ligand-Target Complex>


>  <PubChem CID>


>  <PubChem SID>


>  <ChEMBL ID of Ligand>


>  <DrugBank ID of Ligand>


>  <ZINC ID of Ligand>


>  <PDB ID(s) of Target Chain>
1Q2W,1QZ8,1UJ1,1UK2,1UK3,1UK4,1UW7,1WOF,1Z1I,2A5A,2A5I,2A5K,2ACF,2AHM,2ALV,2AMD,2AMQ,2BX3,2BX4,2C3S,2D2D,2DUC,2FAV,2FE8,2FYG,2G9T,2GA6,2GDT,2GRI,2GT7,2GT8,2GTB,2GX4,2GZ7,2GZ8,2GZ9,2H2Z,2HOB,2HSX,2IDY,2JZF,2K7X,2K87,2KAF,2LIZ,2OP9,2OZK,2RNK,2V6N,2VJ1,2XYQ,2XYR,2XYV,2Z3C,2Z3D,2Z3E,2Z94,2Z9G,2Z9J,2Z9K,2Z9L,2ZU4,2ZU5,3D62,3E91,3E9S,3EA7,3EA8,3EBN,3IWM,3M3V,3MJ5,3R24,3SN8,3SNA,3SNB,3SNC,3SND,3SNE,3SZN,3TIT,3TIU,3TNS,3TNT,3V3M,3VB3,3VB4,3VB5,3VB6,3VB7,4MDS,4MM3,4OVZ,4OW0,5C8S,5C8T,5C8U,5F22,5N19,5N5O,5NFY,5TL6,5TL7,5Y3E,5Y3Q,6JYT,6LNQ,6LNY,6LO0,6NUR,6NUS,6W2A,6W79,6WCO,6XHL,6XHN,6XHO,6XMK,6XOA,7C2K

>  <Smiles>
CC(C)C[C@H](C(N[C@H](C[C@@H](CCN1)C1=O)C=O)=O)NC(OC(Cc1ccccc1)(CC1)CCN1S(C)(=O)=O)=O

$$$$
50458472
Actelion Java MolfileCreator 2.0

  0  0  0  0  0  0              0 V3000
M  V30 BEGIN CTAB
M  V30 COUNTS 33 34 0 0 0
M  V30 BEGIN ATOM
M  V30 1 O 0.0 0.0 0.0 0
M  V30 2 C 0.4468 1.4347 0.0 0
M  V30 3 N 1.8581 1.9051 0.0 0
M  V30 4 C -0.4351 2.6578 0.0 0 CFG=2
M  V30 5 C 1.8463 3.4105 0.0 0
M  V30 6 C 0.4233 3.8809 0.0 0
M  V30 7 C -1.9404 2.6696 0.0 0
M  V30 8 C -2.6931 3.975 0.0 0 CFG=1
M  V30 9 N -4.1984 3.9867 0.0 0
M  V30 10 C -1.9639 5.2804 0.0 0
M  V30 11 C -4.9628 5.2921 0.0 0
M  V30 12 O -2.7166 6.5858 0.0 0
M  V30 13 O -4.2219 6.5975 0.0 0
M  V30 14 C -6.4682 5.3039 0.0 0 CFG=2
M  V30 15 N -7.2208 4.022 0.0 0
M  V30 16 C -7.2208 6.6093 0.0 0
M  V30 17 C -6.4917 2.7401 0.0 0
M  V30 18 C -8.7262 6.6211 0.0 0
M  V30 19 O -5.0099 2.7519 0.0 0
M  V30 20 O -7.2444 1.4582 0.0 0
M  V30 21 C -9.4906 5.3392 0.0 0
M  V30 22 C -9.4906 7.9265 0.0 0
M  V30 23 C -8.7497 1.47 0.0 0
M  V30 24 C -9.5141 2.7754 0.0 0
M  V30 25 C -9.5141 0.1881 0.0 0
M  V30 26 C -11.0195 2.7872 0.0 0
M  V30 27 C -11.0195 0.1999 0.0 0
M  V30 28 N -11.7721 1.5053 0.0 0
M  V30 29 C -13.2775 1.517 0.0 0
M  V30 30 O -14.0419 2.8224 0.0 0
M  V30 31 O -14.0419 0.2352 0.0 0
M  V30 32 C -15.5472 0.2469 0.0 0
M  V30 33 C -16.2999 -1.0349 0.0 0
M  V30 END ATOM
M  V30 BEGIN BOND
M  V30 1 2 1 2
M  V30 2 1 2 3
M  V30 3 1 2 4
M  V30 4 1 3 5
M  V30 5 1 4 6
M  V30 6 1 4 7 CFG=1
M  V30 7 1 7 8
M  V30 8 1 8 9 CFG=1
M  V30 9 1 8 10
M  V30 10 1 9 11
M  V30 11 2 10 12
M  V30 12 2 11 13
M  V30 13 1 11 14
M  V30 14 1 14 15 CFG=3
M  V30 15 1 14 16
M  V30 16 1 15 17
M  V30 17 1 16 18
M  V30 18 2 17 19
M  V30 19 1 17 20
M  V30 20 1 18 21
M  V30 21 1 18 22
M  V30 22 1 20 23
M  V30 23 1 23 24
M  V30 24 1 23 25
M  V30 25 1 24 26
M  V30 26 1 25 27
M  V30 27 1 26 28
M  V30 28 1 28 29
M  V30 29 2 29 30
M  V30 30 1 29 31
M  V30 31 1 31 32
M  V30 32 1 32 33
M  V30 33 1 5 6
M  V30 34 1 27 28
M  V30 END BOND
M  V30 BEGIN COLLECTION
M  V30 MDLV30/STERAC1 ATOMS=(3 4 8 14)
M  V30 END COLLECTION
M  V30 END CTAB
M  END
>  <Ligand InChI>
InChI=1S/C22H36N4O7/c1-4-32-22(31)26-9-6-17(7-10-26)33-21(30)25-18(11-14(2)3)20(29)24-16(13-27)12-15-5-8-23-19(15)28/h13-18H,4-12H2,1-3H3,(H,23,28)(H,24,29)(H,25,30)/t15-,16-,18-/m0/s1

>  <Ligand InChI Key>
YYTRYFVBTGDGMR-BQFCYCMXSA-N

>  <BindingDB MonomerID>
50458472

>  <Target Name Assigned by Curator or DataSource>
3C-like proteinase (3CL-PRO)

>  <Target Source Organism According to Curator or DataSource>
Human SARS coronavirus

>  <IC50 (nM)>
3200

>  <PMID>
29544147

>  <Ligand HET ID in PDB>


>  <PDB ID(s) for Ligand-Target Complex>


>  <PubChem CID>


>  <PubChem SID>


>  <ChEMBL ID of Ligand>


>  <DrugBank ID of Ligand>


>  <ZINC ID of Ligand>


>  <PDB ID(s) of Target Chain>
1Q2W,1QZ8,1UJ1,1UK2,1UK3,1UK4,1UW7,1WOF,1Z1I,2A5A,2A5I,2A5K,2ACF,2AHM,2ALV,2AMD,2AMQ,2BX3,2BX4,2C3S,2D2D,2DUC,2FAV,2FE8,2FYG,2G9T,2GA6,2GDT,2GRI,2GT7,2GT8,2GTB,2GX4,2GZ7,2GZ8,2GZ9,2H2Z,2HOB,2HSX,2IDY,2JZF,2K7X,2K87,2KAF,2LIZ,2OP9,2OZK,2RNK,2V6N,2VJ1,2XYQ,2XYR,2XYV,2Z3C,2Z3D,2Z3E,2Z94,2Z9G,2Z9J,2Z9K,2Z9L,2ZU4,2ZU5,3D62,3E91,3E9S,3EA7,3EA8,3EBN,3IWM,3M3V,3MJ5,3R24,3SN8,3SNA,3SNB,3SNC,3SND,3SNE,3SZN,3TIT,3TIU,3TNS,3TNT,3V3M,3VB3,3VB4,3VB5,3VB6,3VB7,4MDS,4MM3,4OVZ,4OW0,5C8S,5C8T,5C8U,5F22,5N19,5N5O,5NFY,5TL6,5TL7,5Y3E,5Y3Q,6JYT,6LNQ,6LNY,6LO0,6NUR,6NUS,6W2A,6W79,6WCO,6XHL,6XHN,6XHO,6XMK,6XOA,7C2K

>  <Smiles>
CCOC(N(CC1)CCC1OC(N[C@H](CC(C)C)C(N[C@H](C[C@@H](CCN1)C1=O)C=O)=O)=O)=O

$$$$
420298
Actelion Java MolfileCreator 2.0

  0  0  0  0  0  0              0 V3000
M  V30 BEGIN CTAB
M  V30 COUNTS 34 36 0 0 0
M  V30 BEGIN ATOM
M  V30 1 O 0.0 0.0 0.0 0
M  V30 2 C -1.5077 -0.0117 0.0 0
M  V30 3 N -2.4265 1.1896 0.0 0
M  V30 4 C -2.3793 -1.225 0.0 0 CFG=1
M  V30 5 C -3.8517 0.7067 0.0 0
M  V30 6 C -3.8282 -0.7774 0.0 0
M  V30 7 C -1.8964 -2.6267 0.0 0
M  V30 8 C -2.8858 -3.7457 0.0 0 CFG=2
M  V30 9 N -4.37 -3.4513 0.0 0
M  V30 10 C -2.4029 -5.1475 0.0 0
M  V30 11 C -5.3595 -4.5703 0.0 0
M  V30 12 O -3.3924 -6.2665 0.0 0
M  V30 13 C -0.9423 -5.4184 0.0 0
M  V30 14 O -4.8765 -5.972 0.0 0
M  V30 15 C -6.8437 -4.2758 0.0 0 CFG=1
M  V30 16 O 0.0235 -4.2758 0.0 0
M  V30 17 N -7.3502 -2.8505 0.0 0
M  V30 18 C -7.8331 -5.3948 0.0 0
M  V30 19 C -6.3843 -1.7079 0.0 0
M  V30 20 C -7.3502 -6.7965 0.0 0
M  V30 21 O -4.9236 -1.9789 0.0 0
M  V30 22 C -6.8908 -0.2827 0.0 0
M  V30 23 C -8.3396 -7.9156 0.0 0
M  V30 24 C -5.8895 -7.0675 0.0 0
M  V30 25 N -6.0427 0.9541 0.0 0
M  V30 26 C -8.3396 0.1649 0.0 0
M  V30 27 C -6.9614 2.1555 0.0 0
M  V30 28 C -8.3749 1.6726 0.0 0
M  V30 29 C -6.6905 3.6397 0.0 0
M  V30 30 C -9.5175 2.662 0.0 0
M  V30 31 C -7.8331 4.6292 0.0 0
M  V30 32 O -10.9428 2.1791 0.0 0
M  V30 33 C -9.2466 4.1462 0.0 0
M  V30 34 C -12.0854 3.1686 0.0 0
M  V30 END ATOM
M  V30 BEGIN BOND
M  V30 1 2 1 2
M  V30 2 1 2 3
M  V30 3 1 2 4
M  V30 4 1 3 5
M  V30 5 1 4 6
M  V30 6 1 4 7 CFG=3
M  V30 7 1 7 8
M  V30 8 1 8 9 CFG=1
M  V30 9 1 8 10
M  V30 10 1 9 11
M  V30 11 2 10 12
M  V30 12 1 10 13
M  V30 13 2 11 14
M  V30 14 1 11 15
M  V30 15 1 13 16
M  V30 16 1 15 17 CFG=3
M  V30 17 1 15 18
M  V30 18 1 17 19
M  V30 19 1 18 20
M  V30 20 2 19 21
M  V30 21 1 19 22
M  V30 22 1 20 23
M  V30 23 1 20 24
M  V30 24 2 22 25
M  V30 25 1 22 26
M  V30 26 1 25 27
M  V30 27 2 26 28
M  V30 28 1 27 29
M  V30 29 1 28 30
M  V30 30 2 29 31
M  V30 31 1 30 32
M  V30 32 2 30 33
M  V30 33 1 32 34
M  V30 34 1 5 6
M  V30 35 1 27 28
M  V30 36 1 31 33
M  V30 END BOND
M  V30 BEGIN COLLECTION
M  V30 MDLV30/STEABS ATOMS=(3 4 8 15)
M  V30 END COLLECTION
M  V30 END CTAB
M  END
>  <Ligand InChI>
InChI=1S/C24H32N4O6/c1-13(2)9-18(23(32)27-17(20(30)12-29)10-14-7-8-25-22(14)31)28-24(33)19-11-15-16(26-19)5-4-6-21(15)34-3/h4-6,11,13-14,17-18,26,29H,7-10,12H2,1-3H3,(H,25,31)(H,27,32)(H,28,33)/t14-,17-,18-/m0/s1

>  <Ligand InChI Key>
QDIMHKWNHMVDJB-WBAXXEDZSA-N

>  <BindingDB MonomerID>
420298

>  <Target Name Assigned by Curator or DataSource>
3C-like proteinase (3CL-PRO)

>  <Target Source Organism According to Curator or DataSource>
Human SARS coronavirus

>  <IC50 (nM)>
4.00

>  <PMID>
WO2005113580A1

>  <Ligand HET ID in PDB>
V2M

>  <PDB ID(s) for Ligand-Target Complex>


>  <PubChem CID>


>  <PubChem SID>


>  <ChEMBL ID of Ligand>


>  <DrugBank ID of Ligand>


>  <ZINC ID of Ligand>


>  <PDB ID(s) of Target Chain>
1Q2W,1QZ8,1UJ1,1UK2,1UK3,1UK4,1UW7,1WOF,1Z1I,2A5A,2A5I,2A5K,2ACF,2AHM,2ALV,2AMD,2AMQ,2BX3,2BX4,2C3S,2D2D,2DUC,2FAV,2FE8,2FYG,2G9T,2GA6,2GDT,2GRI,2GT7,2GT8,2GTB,2GX4,2GZ7,2GZ8,2GZ9,2H2Z,2HOB,2HSX,2IDY,2JZF,2K7X,2K87,2KAF,2LIZ,2OP9,2OZK,2RNK,2V6N,2VJ1,2XYQ,2XYR,2XYV,2Z3C,2Z3D,2Z3E,2Z94,2Z9G,2Z9J,2Z9K,2Z9L,2ZU4,2ZU5,3D62,3E91,3E9S,3EA7,3EA8,3EBN,3IWM,3M3V,3MJ5,3R24,3SN8,3SNA,3SNB,3SNC,3SND,3SNE,3SZN,3TIT,3TIU,3TNS,3TNT,3V3M,3VB3,3VB4,3VB5,3VB6,3VB7,4MDS,4MM3,4OVZ,4OW0,5C8S,5C8T,5C8U,5F22,5N19,5N5O,5NFY,5TL6,5TL7,5Y3E,5Y3Q,6JYT,6LNQ,6LNY,6LO0,6NUR,6NUS,6W2A,6W79,6WCO,6XHL,6XHN,6XHO,6XMK,6XOA,7C2K,7JOY

>  <Smiles>
CC(C)C[C@@H](C(N[C@@H](C[C@H](CCN1)C1=O)C(CO)=O)=O)NC(C1=NC(C=CC=C2OC)C2=C1)=O

$$$$
423410
Actelion Java MolfileCreator 2.0

  0  0  0  0  0  0              0 V3000
M  V30 BEGIN CTAB
M  V30 COUNTS 35 37 0 0 0
M  V30 BEGIN ATOM
M  V30 1 O 0.0 0.0 0.0 0
M  V30 2 C -0.2006 1.4987 0.0 0
M  V30 3 N -1.5223 2.2304 0.0 0
M  V30 4 C 0.885 2.5372 0.0 0 CFG=1
M  V30 5 C -1.2509 3.7173 0.0 0
M  V30 6 C 0.236 3.9062 0.0 0
M  V30 7 C 2.3484 2.2658 0.0 0
M  V30 8 C 3.3161 3.4105 0.0 0 CFG=2
M  V30 9 N 4.7794 3.1391 0.0 0
M  V30 10 C 2.8086 4.8384 0.0 0
M  V30 11 C 5.7471 4.2838 0.0 0
M  V30 12 O 3.7763 5.9832 0.0 0
M  V30 13 C 1.3217 5.1335 0.0 0
M  V30 14 O 5.2397 5.7117 0.0 0
M  V30 15 C 7.2105 4.0124 0.0 0 CFG=1
M  V30 16 O 0.8142 6.5614 0.0 0
M  V30 17 N 7.6943 2.608 0.0 0
M  V30 18 C 8.1782 5.1571 0.0 0
M  V30 19 C -0.6726 6.8565 0.0 0
M  V30 20 C 6.703 1.4869 0.0 0
M  V30 21 C 7.6707 6.585 0.0 0
M  V30 22 O 5.2161 1.7819 0.0 0
M  V30 23 C 7.1869 0.0826 0.0 0
M  V30 24 C 6.1838 6.8801 0.0 0
M  V30 25 C 8.6384 7.7297 0.0 0
M  V30 26 N 8.6148 -0.3422 0.0 0
M  V30 27 C 6.3136 -1.1329 0.0 0
M  V30 28 C 8.6266 -1.8291 0.0 0
M  V30 29 C 7.2105 -2.313 0.0 0
M  V30 30 C 9.7478 -2.7968 0.0 0
M  V30 31 C 6.9155 -3.7763 0.0 0
M  V30 32 C 9.4527 -4.2602 0.0 0
M  V30 33 O 5.4875 -4.2602 0.0 0
M  V30 34 C 8.0366 -4.744 0.0 0
M  V30 35 C 5.1925 -5.7235 0.0 0
M  V30 END ATOM
M  V30 BEGIN BOND
M  V30 1 2 1 2
M  V30 2 1 2 3
M  V30 3 1 2 4
M  V30 4 1 3 5
M  V30 5 1 4 6
M  V30 6 1 4 7 CFG=1
M  V30 7 1 7 8
M  V30 8 1 8 9 CFG=1
M  V30 9 1 8 10
M  V30 10 1 9 11
M  V30 11 2 10 12
M  V30 12 1 10 13
M  V30 13 2 11 14
M  V30 14 1 11 15
M  V30 15 1 13 16
M  V30 16 1 15 17 CFG=3
M  V30 17 1 15 18
M  V30 18 1 16 19
M  V30 19 1 17 20
M  V30 20 1 18 21
M  V30 21 2 20 22
M  V30 22 1 20 23
M  V30 23 1 21 24
M  V30 24 1 21 25
M  V30 25 2 23 26
M  V30 26 1 23 27
M  V30 27 1 26 28
M  V30 28 2 27 29
M  V30 29 1 28 30
M  V30 30 1 29 31
M  V30 31 2 30 32
M  V30 32 1 31 33
M  V30 33 2 31 34
M  V30 34 1 33 35
M  V30 35 1 5 6
M  V30 36 1 28 29
M  V30 37 1 32 34
M  V30 END BOND
M  V30 BEGIN COLLECTION
M  V30 MDLV30/STEABS ATOMS=(3 4 8 15)
M  V30 END COLLECTION
M  V30 END CTAB
M  END
>  <Ligand InChI>
InChI=1S/C25H34N4O6/c1-14(2)10-19(29-25(33)20-12-16-17(27-20)6-5-7-22(16)35-4)24(32)28-18(21(30)13-34-3)11-15-8-9-26-23(15)31/h5-7,12,14-15,18-19,27H,8-11,13H2,1-4H3,(H,26,31)(H,28,32)(H,29,33)/t15-,18-,19-/m0/s1

>  <Ligand InChI Key>
DDBOBUWAMRFUJW-SNRMKQJTSA-N

>  <BindingDB MonomerID>
423410

>  <Target Name Assigned by Curator or DataSource>
3C-like proteinase (3CL-PRO)

>  <Target Source Organism According to Curator or DataSource>
Human SARS coronavirus

>  <IC50 (nM)>
51

>  <PMID>
WO2005113580A1

>  <Ligand HET ID in PDB>


>  <PDB ID(s) for Ligand-Target Complex>


>  <PubChem CID>


>  <PubChem SID>


>  <ChEMBL ID of Ligand>


>  <DrugBank ID of Ligand>


>  <ZINC ID of Ligand>


>  <PDB ID(s) of Target Chain>
1Q2W,1QZ8,1UJ1,1UK2,1UK3,1UK4,1UW7,1WOF,1Z1I,2A5A,2A5I,2A5K,2ACF,2AHM,2ALV,2AMD,2AMQ,2BX3,2BX4,2C3S,2D2D,2DUC,2FAV,2FE8,2FYG,2G9T,2GA6,2GDT,2GRI,2GT7,2GT8,2GTB,2GX4,2GZ7,2GZ8,2GZ9,2H2Z,2HOB,2HSX,2IDY,2JZF,2K7X,2K87,2KAF,2LIZ,2OP9,2OZK,2RNK,2V6N,2VJ1,2XYQ,2XYR,2XYV,2Z3C,2Z3D,2Z3E,2Z94,2Z9G,2Z9J,2Z9K,2Z9L,2ZU4,2ZU5,3D62,3E91,3E9S,3EA7,3EA8,3EBN,3IWM,3M3V,3MJ5,3R24,3SN8,3SNA,3SNB,3SNC,3SND,3SNE,3SZN,3TIT,3TIU,3TNS,3TNT,3V3M,3VB3,3VB4,3VB5,3VB6,3VB7,4MDS,4MM3,4OVZ,4OW0,5C8S,5C8T,5C8U,5F22,5N19,5N5O,5NFY,5TL6,5TL7,5Y3E,5Y3Q,6JYT,6LNQ,6LNY,6LO0,6NUR,6NUS,6W2A,6W79,6WCO,6XHL,6XHN,6XHO,6XMK,6XOA,7C2K,7JOY

>  <Smiles>
CC(C)C[C@@H](C(N[C@@H](C[C@H](CCN1)C1=O)C(COC)=O)=O)NC(C1=NC(C=CC=C2OC)C2=C1)=O

$$$$
423411
Actelion Java MolfileCreator 2.0

  0  0  0  0  0  0              0 V3000
M  V30 BEGIN CTAB
M  V30 COUNTS 32 34 0 0 0
M  V30 BEGIN ATOM
M  V30 1 O 0.0 0.0 0.0 0
M  V30 2 C -1.1254 -0.9951 0.0 0
M  V30 3 N -2.6062 -0.6752 0.0 0
M  V30 4 C -0.9832 -2.4759 0.0 0 CFG=1
M  V30 5 C -3.3644 -1.9665 0.0 0
M  V30 6 C -2.3693 -3.0801 0.0 0
M  V30 7 C 0.308 -3.2104 0.0 0
M  V30 8 C 0.2961 -4.7031 0.0 0 CFG=2
M  V30 9 N 1.5874 -5.4494 0.0 0
M  V30 10 C -1.0188 -5.4494 0.0 0
M  V30 11 C 1.5756 -6.9421 0.0 0
M  V30 12 O -2.3338 -4.6794 0.0 0
M  V30 13 C -1.0306 -6.9421 0.0 0
M  V30 14 O 0.2606 -7.6766 0.0 0
M  V30 15 C 2.8669 -7.6766 0.0 0 CFG=1
M  V30 16 O -2.3456 -7.6766 0.0 0
M  V30 17 N 2.855 -9.1693 0.0 0
M  V30 18 C 4.1581 -6.9184 0.0 0
M  V30 19 C 4.1463 -9.9038 0.0 0
M  V30 20 C 4.1463 -5.4021 0.0 0
M  V30 21 O 5.4376 -9.1456 0.0 0
M  V30 22 C 4.1345 -11.3965 0.0 0
M  V30 23 C 2.8313 -4.632 0.0 0
M  V30 24 C 5.4376 -4.632 0.0 0
M  V30 25 N 5.3428 -12.2731 0.0 0
M  V30 26 C 2.9024 -12.2731 0.0 0
M  V30 27 C 4.869 -13.6948 0.0 0
M  V30 28 C 3.3526 -13.6948 0.0 0
M  V30 29 C 5.6034 -14.986 0.0 0
M  V30 30 C 2.5944 -14.986 0.0 0
M  V30 31 C 4.8453 -16.2773 0.0 0
M  V30 32 C 3.3289 -16.2773 0.0 0
M  V30 END ATOM
M  V30 BEGIN BOND
M  V30 1 2 1 2
M  V30 2 1 2 3
M  V30 3 1 2 4
M  V30 4 1 3 5
M  V30 5 1 4 6
M  V30 6 1 4 7 CFG=3
M  V30 7 1 7 8
M  V30 8 1 8 9 CFG=3
M  V30 9 1 8 10
M  V30 10 1 9 11
M  V30 11 2 10 12
M  V30 12 1 10 13
M  V30 13 2 11 14
M  V30 14 1 11 15
M  V30 15 1 13 16
M  V30 16 1 15 17 CFG=3
M  V30 17 1 15 18
M  V30 18 1 17 19
M  V30 19 1 18 20
M  V30 20 2 19 21
M  V30 21 1 19 22
M  V30 22 1 20 23
M  V30 23 1 20 24
M  V30 24 2 22 25
M  V30 25 1 22 26
M  V30 26 1 25 27
M  V30 27 2 26 28
M  V30 28 1 27 29
M  V30 29 1 28 30
M  V30 30 2 29 31
M  V30 31 2 30 32
M  V30 32 1 5 6
M  V30 33 1 27 28
M  V30 34 1 31 32
M  V30 END BOND
M  V30 BEGIN COLLECTION
M  V30 MDLV30/STEABS ATOMS=(3 4 8 15)
M  V30 END COLLECTION
M  V30 END CTAB
M  END
>  <Ligand InChI>
InChI=1S/C23H30N4O5/c1-13(2)9-18(27-23(32)19-10-14-5-3-4-6-16(14)25-19)22(31)26-17(20(29)12-28)11-15-7-8-24-21(15)30/h3-6,10,13,15,17-18,25,28H,7-9,11-12H2,1-2H3,(H,24,30)(H,26,31)(H,27,32)/t15-,17-,18-/m0/s1

>  <Ligand InChI Key>
KGHYEZHKSVQRJH-SZMVWBNQSA-N

>  <BindingDB MonomerID>
423411

>  <Target Name Assigned by Curator or DataSource>
3C-like proteinase (3CL-PRO)

>  <Target Source Organism According to Curator or DataSource>
Human SARS coronavirus

>  <IC50 (nM)>
38

>  <PMID>
WO2005113580A1

>  <Ligand HET ID in PDB>


>  <PDB ID(s) for Ligand-Target Complex>


>  <PubChem CID>


>  <PubChem SID>


>  <ChEMBL ID of Ligand>


>  <DrugBank ID of Ligand>


>  <ZINC ID of Ligand>


>  <PDB ID(s) of Target Chain>
1Q2W,1QZ8,1UJ1,1UK2,1UK3,1UK4,1UW7,1WOF,1Z1I,2A5A,2A5I,2A5K,2ACF,2AHM,2ALV,2AMD,2AMQ,2BX3,2BX4,2C3S,2D2D,2DUC,2FAV,2FE8,2FYG,2G9T,2GA6,2GDT,2GRI,2GT7,2GT8,2GTB,2GX4,2GZ7,2GZ8,2GZ9,2H2Z,2HOB,2HSX,2IDY,2JZF,2K7X,2K87,2KAF,2LIZ,2OP9,2OZK,2RNK,2V6N,2VJ1,2XYQ,2XYR,2XYV,2Z3C,2Z3D,2Z3E,2Z94,2Z9G,2Z9J,2Z9K,2Z9L,2ZU4,2ZU5,3D62,3E91,3E9S,3EA7,3EA8,3EBN,3IWM,3M3V,3MJ5,3R24,3SN8,3SNA,3SNB,3SNC,3SND,3SNE,3SZN,3TIT,3TIU,3TNS,3TNT,3V3M,3VB3,3VB4,3VB5,3VB6,3VB7,4MDS,4MM3,4OVZ,4OW0,5C8S,5C8T,5C8U,5F22,5N19,5N5O,5NFY,5TL6,5TL7,5Y3E,5Y3Q,6JYT,6LNQ,6LNY,6LO0,6NUR,6NUS,6W2A,6W79,6WCO,6XHL,6XHN,6XHO,6XMK,6XOA,7C2K,7JOY

>  <Smiles>
CC(C)C[C@@H](C(N[C@@H](C[C@H](CCN1)C1=O)C(CO)=O)=O)NC(C1=NC(C=CC=C2)C2=C1)=O

$$$$
423412
Actelion Java MolfileCreator 2.0

  0  0  0  0  0  0              0 V3000
M  V30 BEGIN CTAB
M  V30 COUNTS 33 35 0 0 0
M  V30 BEGIN ATOM
M  V30 1 O 0.0 0.0 0.0 0
M  V30 2 C -1.3946 -0.5673 0.0 0
M  V30 3 N -2.6948 0.2245 0.0 0
M  V30 4 C -1.7492 -2.0211 0.0 0 CFG=1
M  V30 5 C -3.8413 -0.7446 0.0 0
M  V30 6 C -3.2621 -2.1393 0.0 0
M  V30 7 C -0.78 -3.1439 0.0 0
M  V30 8 C -1.2883 -4.5504 0.0 0 CFG=2
M  V30 9 N -0.3191 -5.6733 0.0 0
M  V30 10 C -2.7775 -4.8223 0.0 0
M  V30 11 C -0.8273 -7.0798 0.0 0
M  V30 12 O -3.7704 -3.6758 0.0 0
M  V30 13 C -3.2858 -6.2288 0.0 0
M  V30 14 O -2.3166 -7.3517 0.0 0
M  V30 15 C 0.1418 -8.2027 0.0 0 CFG=1
M  V30 16 O -4.775 -6.5007 0.0 0
M  V30 17 N -0.3664 -9.6092 0.0 0
M  V30 18 C 1.6074 -7.9072 0.0 0
M  V30 19 C -5.2833 -7.9072 0.0 0
M  V30 20 C 0.6027 -10.732 0.0 0
M  V30 21 C 2.092 -6.477 0.0 0
M  V30 22 O 2.0684 -10.4365 0.0 0
M  V30 23 C 0.0945 -12.1385 0.0 0
M  V30 24 C 1.0992 -5.3305 0.0 0
M  V30 25 C 3.5576 -6.1815 0.0 0
M  V30 26 N 0.9455 -13.3559 0.0 0
M  V30 27 C -1.3592 -12.564 0.0 0
M  V30 28 C 0.0236 -14.5379 0.0 0
M  V30 29 C -1.3946 -14.0533 0.0 0
M  V30 30 C 0.2954 -16.0035 0.0 0
M  V30 31 C -2.5411 -15.0225 0.0 0
M  V30 32 C -0.851 -16.9727 0.0 0
M  V30 33 C -2.2693 -16.4881 0.0 0
M  V30 END ATOM
M  V30 BEGIN BOND
M  V30 1 2 1 2
M  V30 2 1 2 3
M  V30 3 1 2 4
M  V30 4 1 3 5
M  V30 5 1 4 6
M  V30 6 1 4 7 CFG=3
M  V30 7 1 7 8
M  V30 8 1 8 9 CFG=3
M  V30 9 1 8 10
M  V30 10 1 9 11
M  V30 11 2 10 12
M  V30 12 1 10 13
M  V30 13 2 11 14
M  V30 14 1 11 15
M  V30 15 1 13 16
M  V30 16 1 15 17 CFG=3
M  V30 17 1 15 18
M  V30 18 1 16 19
M  V30 19 1 17 20
M  V30 20 1 18 21
M  V30 21 2 20 22
M  V30 22 1 20 23
M  V30 23 1 21 24
M  V30 24 1 21 25
M  V30 25 2 23 26
M  V30 26 1 23 27
M  V30 27 1 26 28
M  V30 28 2 27 29
M  V30 29 1 28 30
M  V30 30 1 29 31
M  V30 31 2 30 32
M  V30 32 2 31 33
M  V30 33 1 5 6
M  V30 34 1 28 29
M  V30 35 1 32 33
M  V30 END BOND
M  V30 BEGIN COLLECTION
M  V30 MDLV30/STEABS ATOMS=(3 4 8 15)
M  V30 END COLLECTION
M  V30 END CTAB
M  END
>  <Ligand InChI>
InChI=1S/C24H32N4O5/c1-14(2)10-19(28-24(32)20-11-15-6-4-5-7-17(15)26-20)23(31)27-18(21(29)13-33-3)12-16-8-9-25-22(16)30/h4-7,11,14,16,18-19,26H,8-10,12-13H2,1-3H3,(H,25,30)(H,27,31)(H,28,32)/t16-,18-,19-/m0/s1

>  <Ligand InChI Key>
YVANQKRQLNQFTP-WDSOQIARSA-N

>  <BindingDB MonomerID>
423412

>  <Target Name Assigned by Curator or DataSource>
3C-like proteinase (3CL-PRO)

>  <Target Source Organism According to Curator or DataSource>
Human SARS coronavirus

>  <IC50 (nM)>
131

>  <PMID>
WO2005113580A1

>  <Ligand HET ID in PDB>


>  <PDB ID(s) for Ligand-Target Complex>


>  <PubChem CID>


>  <PubChem SID>


>  <ChEMBL ID of Ligand>


>  <DrugBank ID of Ligand>


>  <ZINC ID of Ligand>


>  <PDB ID(s) of Target Chain>
1Q2W,1QZ8,1UJ1,1UK2,1UK3,1UK4,1UW7,1WOF,1Z1I,2A5A,2A5I,2A5K,2ACF,2AHM,2ALV,2AMD,2AMQ,2BX3,2BX4,2C3S,2D2D,2DUC,2FAV,2FE8,2FYG,2G9T,2GA6,2GDT,2GRI,2GT7,2GT8,2GTB,2GX4,2GZ7,2GZ8,2GZ9,2H2Z,2HOB,2HSX,2IDY,2JZF,2K7X,2K87,2KAF,2LIZ,2OP9,2OZK,2RNK,2V6N,2VJ1,2XYQ,2XYR,2XYV,2Z3C,2Z3D,2Z3E,2Z94,2Z9G,2Z9J,2Z9K,2Z9L,2ZU4,2ZU5,3D62,3E91,3E9S,3EA7,3EA8,3EBN,3IWM,3M3V,3MJ5,3R24,3SN8,3SNA,3SNB,3SNC,3SND,3SNE,3SZN,3TIT,3TIU,3TNS,3TNT,3V3M,3VB3,3VB4,3VB5,3VB6,3VB7,4MDS,4MM3,4OVZ,4OW0,5C8S,5C8T,5C8U,5F22,5N19,5N5O,5NFY,5TL6,5TL7,5Y3E,5Y3Q,6JYT,6LNQ,6LNY,6LO0,6NUR,6NUS,6W2A,6W79,6WCO,6XHL,6XHN,6XHO,6XMK,6XOA,7C2K,7JOY

>  <Smiles>
CC(C)C[C@@H](C(N[C@@H](C[C@H](CCN1)C1=O)C(COC)=O)=O)NC(C1=NC(C=CC=C2)C2=C1)=O

$$$$
423414
Actelion Java MolfileCreator 2.0

  0  0  0  0  0  0              0 V3000
M  V30 BEGIN CTAB
M  V30 COUNTS 34 36 0 0 0
M  V30 BEGIN ATOM
M  V30 1 O 0.0 0.0 0.0 0
M  V30 2 C -1.3867 0.5875 0.0 0
M  V30 3 N -2.6794 -0.1762 0.0 0
M  V30 4 C -1.7392 2.0565 0.0 0 CFG=1
M  V30 5 C -3.8193 0.8108 0.0 0
M  V30 6 C -3.2435 2.1975 0.0 0
M  V30 7 C -0.7756 3.1964 0.0 0
M  V30 8 C -1.2809 4.6184 0.0 0 CFG=2
M  V30 9 N -0.3172 5.7583 0.0 0
M  V30 10 C -2.7616 4.9122 0.0 0
M  V30 11 C -0.8226 7.1803 0.0 0
M  V30 12 O -3.7488 3.7958 0.0 0
M  V30 13 C -3.267 6.3342 0.0 0
M  V30 14 O -2.3033 7.4741 0.0 0
M  V30 15 C 0.141 8.3202 0.0 0 CFG=1
M  V30 16 O -4.7477 6.628 0.0 0
M  V30 17 N -0.3643 9.7422 0.0 0
M  V30 18 C 1.5982 8.05 0.0 0
M  V30 19 C 0.5993 10.8821 0.0 0
M  V30 20 C 2.08 6.6515 0.0 0
M  V30 21 O 2.0565 10.6119 0.0 0
M  V30 22 C 0.094 12.3041 0.0 0
M  V30 23 C 3.5373 6.3812 0.0 0
M  V30 24 N -1.3514 12.7507 0.0 0
M  V30 25 C 0.9401 13.5381 0.0 0
M  V30 26 C 4.0191 4.9827 0.0 0
M  V30 27 C -1.3867 14.2549 0.0 0
M  V30 28 C 0.0235 14.7367 0.0 0
M  V30 29 C -2.5266 15.2421 0.0 0
M  V30 30 C 0.2937 16.2175 0.0 0
M  V30 31 C -2.2563 16.7228 0.0 0
M  V30 32 O 1.6922 16.7228 0.0 0
M  V30 33 C -0.8461 17.2046 0.0 0
M  V30 34 C 1.9625 18.2035 0.0 0
M  V30 END ATOM
M  V30 BEGIN BOND
M  V30 1 2 1 2
M  V30 2 1 2 3
M  V30 3 1 2 4
M  V30 4 1 3 5
M  V30 5 1 4 6
M  V30 6 1 4 7 CFG=1
M  V30 7 1 7 8
M  V30 8 1 8 9 CFG=1
M  V30 9 1 8 10
M  V30 10 1 9 11
M  V30 11 2 10 12
M  V30 12 1 10 13
M  V30 13 2 11 14
M  V30 14 1 11 15
M  V30 15 1 13 16
M  V30 16 1 15 17 CFG=1
M  V30 17 1 15 18
M  V30 18 1 17 19
M  V30 19 1 18 20
M  V30 20 2 19 21
M  V30 21 1 19 22
M  V30 22 1 20 23
M  V30 23 2 22 24
M  V30 24 1 22 25
M  V30 25 1 23 26
M  V30 26 1 24 27
M  V30 27 2 25 28
M  V30 28 1 27 29
M  V30 29 1 28 30
M  V30 30 2 29 31
M  V30 31 1 30 32
M  V30 32 2 30 33
M  V30 33 1 32 34
M  V30 34 1 5 6
M  V30 35 1 27 28
M  V30 36 1 31 33
M  V30 END BOND
M  V30 BEGIN COLLECTION
M  V30 MDLV30/STEABS ATOMS=(3 4 8 15)
M  V30 END COLLECTION
M  V30 END CTAB
M  END
>  <Ligand InChI>
InChI=1S/C24H32N4O6/c1-3-4-6-17(23(32)28-18(20(30)13-29)11-14-9-10-25-22(14)31)27-24(33)19-12-15-16(26-19)7-5-8-21(15)34-2/h5,7-8,12,14,17-18,26,29H,3-4,6,9-11,13H2,1-2H3,(H,25,31)(H,27,33)(H,28,32)/t14-,17-,18-/m0/s1

>  <Ligand InChI Key>
VBDNWOQWUMJPAC-WBAXXEDZSA-N

>  <BindingDB MonomerID>
423414

>  <Target Name Assigned by Curator or DataSource>
3C-like proteinase (3CL-PRO)

>  <Target Source Organism According to Curator or DataSource>
Human SARS coronavirus

>  <IC50 (nM)>
20

>  <PMID>
WO2005113580A1

>  <Ligand HET ID in PDB>


>  <PDB ID(s) for Ligand-Target Complex>


>  <PubChem CID>


>  <PubChem SID>


>  <ChEMBL ID of Ligand>


>  <DrugBank ID of Ligand>


>  <ZINC ID of Ligand>


>  <PDB ID(s) of Target Chain>
1Q2W,1QZ8,1UJ1,1UK2,1UK3,1UK4,1UW7,1WOF,1Z1I,2A5A,2A5I,2A5K,2ACF,2AHM,2ALV,2AMD,2AMQ,2BX3,2BX4,2C3S,2D2D,2DUC,2FAV,2FE8,2FYG,2G9T,2GA6,2GDT,2GRI,2GT7,2GT8,2GTB,2GX4,2GZ7,2GZ8,2GZ9,2H2Z,2HOB,2HSX,2IDY,2JZF,2K7X,2K87,2KAF,2LIZ,2OP9,2OZK,2RNK,2V6N,2VJ1,2XYQ,2XYR,2XYV,2Z3C,2Z3D,2Z3E,2Z94,2Z9G,2Z9J,2Z9K,2Z9L,2ZU4,2ZU5,3D62,3E91,3E9S,3EA7,3EA8,3EBN,3IWM,3M3V,3MJ5,3R24,3SN8,3SNA,3SNB,3SNC,3SND,3SNE,3SZN,3TIT,3TIU,3TNS,3TNT,3V3M,3VB3,3VB4,3VB5,3VB6,3VB7,4MDS,4MM3,4OVZ,4OW0,5C8S,5C8T,5C8U,5F22,5N19,5N5O,5NFY,5TL6,5TL7,5Y3E,5Y3Q,6JYT,6LNQ,6LNY,6LO0,6NUR,6NUS,6W2A,6W79,6WCO,6XHL,6XHN,6XHO,6XMK,6XOA,7C2K,7JOY

>  <Smiles>
CCCC[C@@H](C(N[C@@H](C[C@H](CCN1)C1=O)C(CO)=O)=O)NC(C1=NC(C=CC=C2OC)C2=C1)=O

$$$$
423415
Actelion Java MolfileCreator 2.0

  0  0  0  0  0  0              0 V3000
M  V30 BEGIN CTAB
M  V30 COUNTS 35 37 0 0 0
M  V30 BEGIN ATOM
M  V30 1 O 0.0 0.0 0.0 0
M  V30 2 C -1.3868 0.5876 0.0 0
M  V30 3 N -2.6797 -0.1763 0.0 0
M  V30 4 C -1.7395 2.0568 0.0 0 CFG=1
M  V30 5 C -3.8198 0.8109 0.0 0
M  V30 6 C -3.2439 2.1978 0.0 0
M  V30 7 C -0.7757 3.1969 0.0 0
M  V30 8 C -1.2811 4.619 0.0 0 CFG=2
M  V30 9 N -0.3173 5.7591 0.0 0
M  V30 10 C -2.762 4.9129 0.0 0
M  V30 11 C -0.8227 7.1813 0.0 0
M  V30 12 O -3.7493 3.7963 0.0 0
M  V30 13 C -3.2674 6.335 0.0 0
M  V30 14 O -2.3036 7.4751 0.0 0
M  V30 15 C 0.141 8.3213 0.0 0 CFG=1
M  V30 16 O -4.7483 6.6289 0.0 0
M  V30 17 N -0.3643 9.7435 0.0 0
M  V30 18 C 1.5984 8.051 0.0 0
M  V30 19 C 0.5994 10.8836 0.0 0
M  V30 20 C 2.0803 6.6524 0.0 0
M  V30 21 O 2.0568 10.6133 0.0 0
M  V30 22 C 0.094 12.3057 0.0 0
M  V30 23 C 3.5377 6.382 0.0 0
M  V30 24 N -1.3516 12.7524 0.0 0
M  V30 25 C 0.9402 13.5398 0.0 0
M  V30 26 C 4.5015 7.5221 0.0 0
M  V30 27 C 4.0196 4.9834 0.0 0
M  V30 28 C -1.3868 14.2568 0.0 0
M  V30 29 C 0.0235 14.7387 0.0 0
M  V30 30 C -2.5269 15.2441 0.0 0
M  V30 31 C 0.2938 16.2196 0.0 0
M  V30 32 C -2.2566 16.725 0.0 0
M  V30 33 O 1.6924 16.725 0.0 0
M  V30 34 C -0.8462 17.2069 0.0 0
M  V30 35 C 1.9628 18.2059 0.0 0
M  V30 END ATOM
M  V30 BEGIN BOND
M  V30 1 2 1 2
M  V30 2 1 2 3
M  V30 3 1 2 4
M  V30 4 1 3 5
M  V30 5 1 4 6
M  V30 6 1 4 7 CFG=1
M  V30 7 1 7 8
M  V30 8 1 8 9 CFG=1
M  V30 9 1 8 10
M  V30 10 1 9 11
M  V30 11 2 10 12
M  V30 12 1 10 13
M  V30 13 2 11 14
M  V30 14 1 11 15
M  V30 15 1 13 16
M  V30 16 1 15 17 CFG=1
M  V30 17 1 15 18
M  V30 18 1 17 19
M  V30 19 1 18 20
M  V30 20 2 19 21
M  V30 21 1 19 22
M  V30 22 1 20 23
M  V30 23 2 22 24
M  V30 24 1 22 25
M  V30 25 1 23 26
M  V30 26 1 23 27
M  V30 27 1 24 28
M  V30 28 2 25 29
M  V30 29 1 28 30
M  V30 30 1 29 31
M  V30 31 2 30 32
M  V30 32 1 31 33
M  V30 33 2 31 34
M  V30 34 1 33 35
M  V30 35 1 5 6
M  V30 36 1 28 29
M  V30 37 1 32 34
M  V30 END BOND
M  V30 BEGIN COLLECTION
M  V30 MDLV30/STEABS ATOMS=(3 4 8 15)
M  V30 END COLLECTION
M  V30 END CTAB
M  END
>  <Ligand InChI>
InChI=1S/C25H34N4O6/c1-14(2)7-8-18(24(33)29-19(21(31)13-30)11-15-9-10-26-23(15)32)28-25(34)20-12-16-17(27-20)5-4-6-22(16)35-3/h4-6,12,14-15,18-19,27,30H,7-11,13H2,1-3H3,(H,26,32)(H,28,34)(H,29,33)/t15-,18-,19-/m0/s1

>  <Ligand InChI Key>
OXJCELJPLVKZGO-SNRMKQJTSA-N

>  <BindingDB MonomerID>
423415

>  <Target Name Assigned by Curator or DataSource>
3C-like proteinase (3CL-PRO)

>  <Target Source Organism According to Curator or DataSource>
Human SARS coronavirus

>  <IC50 (nM)>
34

>  <PMID>
WO2005113580A1

>  <Ligand HET ID in PDB>


>  <PDB ID(s) for Ligand-Target Complex>


>  <PubChem CID>


>  <PubChem SID>


>  <ChEMBL ID of Ligand>


>  <DrugBank ID of Ligand>


>  <ZINC ID of Ligand>


>  <PDB ID(s) of Target Chain>
1Q2W,1QZ8,1UJ1,1UK2,1UK3,1UK4,1UW7,1WOF,1Z1I,2A5A,2A5I,2A5K,2ACF,2AHM,2ALV,2AMD,2AMQ,2BX3,2BX4,2C3S,2D2D,2DUC,2FAV,2FE8,2FYG,2G9T,2GA6,2GDT,2GRI,2GT7,2GT8,2GTB,2GX4,2GZ7,2GZ8,2GZ9,2H2Z,2HOB,2HSX,2IDY,2JZF,2K7X,2K87,2KAF,2LIZ,2OP9,2OZK,2RNK,2V6N,2VJ1,2XYQ,2XYR,2XYV,2Z3C,2Z3D,2Z3E,2Z94,2Z9G,2Z9J,2Z9K,2Z9L,2ZU4,2ZU5,3D62,3E91,3E9S,3EA7,3EA8,3EBN,3IWM,3M3V,3MJ5,3R24,3SN8,3SNA,3SNB,3SNC,3SND,3SNE,3SZN,3TIT,3TIU,3TNS,3TNT,3V3M,3VB3,3VB4,3VB5,3VB6,3VB7,4MDS,4MM3,4OVZ,4OW0,5C8S,5C8T,5C8U,5F22,5N19,5N5O,5NFY,5TL6,5TL7,5Y3E,5Y3Q,6JYT,6LNQ,6LNY,6LO0,6NUR,6NUS,6W2A,6W79,6WCO,6XHL,6XHN,6XHO,6XMK,6XOA,7C2K,7JOY

>  <Smiles>
CC(C)CC[C@@H](C(N[C@@H](C[C@H](CCN1)C1=O)C(CO)=O)=O)NC(C1=NC(C=CC=C2OC)C2=C1)=O

$$$$
423417
Actelion Java MolfileCreator 2.0

  0  0  0  0  0  0              0 V3000
M  V30 BEGIN CTAB
M  V30 COUNTS 36 38 0 0 0
M  V30 BEGIN ATOM
M  V30 1 O 0.0 0.0 0.0 0
M  V30 2 C -1.3866 0.5875 0.0 0
M  V30 3 N -2.6793 -0.1762 0.0 0
M  V30 4 C -1.7392 2.0565 0.0 0 CFG=1
M  V30 5 C -3.8192 0.8108 0.0 0
M  V30 6 C -3.2434 2.1975 0.0 0
M  V30 7 C -0.7755 3.1963 0.0 0
M  V30 8 C -1.2809 4.6183 0.0 0 CFG=2
M  V30 9 N -0.3172 5.7582 0.0 0
M  V30 10 C -2.7615 4.9121 0.0 0
M  V30 11 C -0.8226 7.1801 0.0 0
M  V30 12 O -3.7487 3.7957 0.0 0
M  V30 13 C -3.2669 6.334 0.0 0
M  V30 14 O -2.3032 7.4739 0.0 0
M  V30 15 C 0.141 8.32 0.0 0 CFG=1
M  V30 16 O -4.7475 6.6278 0.0 0
M  V30 17 N -0.3642 9.7419 0.0 0
M  V30 18 C 1.5981 8.0497 0.0 0
M  V30 19 C -5.2529 8.0497 0.0 0
M  V30 20 C 0.5993 10.8818 0.0 0
M  V30 21 C 2.08 6.6513 0.0 0
M  V30 22 O 2.0565 10.6115 0.0 0
M  V30 23 C 0.094 12.3037 0.0 0
M  V30 24 C 3.5371 6.381 0.0 0
M  V30 25 N -1.3514 12.7503 0.0 0
M  V30 26 C 0.9401 13.5376 0.0 0
M  V30 27 C 4.5008 7.5209 0.0 0
M  V30 28 C 4.019 4.9826 0.0 0
M  V30 29 C -1.3866 14.2545 0.0 0
M  V30 30 C 0.0235 14.7363 0.0 0
M  V30 31 C -2.5265 15.2416 0.0 0
M  V30 32 C 0.2937 16.217 0.0 0
M  V30 33 C -2.2562 16.7223 0.0 0
M  V30 34 O 1.6922 16.7223 0.0 0
M  V30 35 C -0.8461 17.2041 0.0 0
M  V30 36 C 1.9624 18.203 0.0 0
M  V30 END ATOM
M  V30 BEGIN BOND
M  V30 1 2 1 2
M  V30 2 1 2 3
M  V30 3 1 2 4
M  V30 4 1 3 5
M  V30 5 1 4 6
M  V30 6 1 4 7 CFG=1
M  V30 7 1 7 8
M  V30 8 1 8 9 CFG=1
M  V30 9 1 8 10
M  V30 10 1 9 11
M  V30 11 2 10 12
M  V30 12 1 10 13
M  V30 13 2 11 14
M  V30 14 1 11 15
M  V30 15 1 13 16
M  V30 16 1 15 17 CFG=1
M  V30 17 1 15 18
M  V30 18 1 16 19
M  V30 19 1 17 20
M  V30 20 1 18 21
M  V30 21 2 20 22
M  V30 22 1 20 23
M  V30 23 1 21 24
M  V30 24 2 23 25
M  V30 25 1 23 26
M  V30 26 1 24 27
M  V30 27 1 24 28
M  V30 28 1 25 29
M  V30 29 2 26 30
M  V30 30 1 29 31
M  V30 31 1 30 32
M  V30 32 2 31 33
M  V30 33 1 32 34
M  V30 34 2 32 35
M  V30 35 1 34 36
M  V30 36 1 5 6
M  V30 37 1 29 30
M  V30 38 1 33 35
M  V30 END BOND
M  V30 BEGIN COLLECTION
M  V30 MDLV30/STEABS ATOMS=(3 4 8 15)
M  V30 END COLLECTION
M  V30 END CTAB
M  END
>  <Ligand InChI>
InChI=1S/C26H36N4O6/c1-15(2)8-9-19(29-26(34)21-13-17-18(28-21)6-5-7-23(17)36-4)25(33)30-20(22(31)14-35-3)12-16-10-11-27-24(16)32/h5-7,13,15-16,19-20,28H,8-12,14H2,1-4H3,(H,27,32)(H,29,34)(H,30,33)/t16-,19-,20-/m0/s1

>  <Ligand InChI Key>
WUHKRBCSALYANC-VDGAXYAQSA-N

>  <BindingDB MonomerID>
423417

>  <Target Name Assigned by Curator or DataSource>
3C-like proteinase (3CL-PRO)

>  <Target Source Organism According to Curator or DataSource>
Human SARS coronavirus

>  <IC50 (nM)>
36

>  <PMID>
WO2005113580A1

>  <Ligand HET ID in PDB>


>  <PDB ID(s) for Ligand-Target Complex>


>  <PubChem CID>


>  <PubChem SID>


>  <ChEMBL ID of Ligand>


>  <DrugBank ID of Ligand>


>  <ZINC ID of Ligand>


>  <PDB ID(s) of Target Chain>
1Q2W,1QZ8,1UJ1,1UK2,1UK3,1UK4,1UW7,1WOF,1Z1I,2A5A,2A5I,2A5K,2ACF,2AHM,2ALV,2AMD,2AMQ,2BX3,2BX4,2C3S,2D2D,2DUC,2FAV,2FE8,2FYG,2G9T,2GA6,2GDT,2GRI,2GT7,2GT8,2GTB,2GX4,2GZ7,2GZ8,2GZ9,2H2Z,2HOB,2HSX,2IDY,2JZF,2K7X,2K87,2KAF,2LIZ,2OP9,2OZK,2RNK,2V6N,2VJ1,2XYQ,2XYR,2XYV,2Z3C,2Z3D,2Z3E,2Z94,2Z9G,2Z9J,2Z9K,2Z9L,2ZU4,2ZU5,3D62,3E91,3E9S,3EA7,3EA8,3EBN,3IWM,3M3V,3MJ5,3R24,3SN8,3SNA,3SNB,3SNC,3SND,3SNE,3SZN,3TIT,3TIU,3TNS,3TNT,3V3M,3VB3,3VB4,3VB5,3VB6,3VB7,4MDS,4MM3,4OVZ,4OW0,5C8S,5C8T,5C8U,5F22,5N19,5N5O,5NFY,5TL6,5TL7,5Y3E,5Y3Q,6JYT,6LNQ,6LNY,6LO0,6NUR,6NUS,6W2A,6W79,6WCO,6XHL,6XHN,6XHO,6XMK,6XOA,7C2K,7JOY

>  <Smiles>
CC(C)CC[C@@H](C(N[C@@H](C[C@H](CCN1)C1=O)C(COC)=O)=O)NC(C1=NC(C=CC=C2OC)C2=C1)=O

$$$$
423418
Actelion Java MolfileCreator 2.0

  0  0  0  0  0  0              0 V3000
M  V30 BEGIN CTAB
M  V30 COUNTS 35 37 0 0 0
M  V30 BEGIN ATOM
M  V30 1 O 0.0 0.0 0.0 0
M  V30 2 C 0.4494 -1.4193 0.0 0
M  V30 3 N 1.8687 -1.8687 0.0 0
M  V30 4 C -0.4494 -2.6257 0.0 0 CFG=1
M  V30 5 C 1.8569 -3.359 0.0 0
M  V30 6 C 0.4257 -3.8321 0.0 0
M  V30 7 C -1.9633 -2.6139 0.0 0
M  V30 8 C -2.7203 -3.9031 0.0 0 CFG=2
M  V30 9 N -4.2343 -3.8913 0.0 0
M  V30 10 C -1.987 -5.1923 0.0 0
M  V30 11 C -4.9912 -5.1805 0.0 0
M  V30 12 O -2.744 -6.4815 0.0 0
M  V30 13 C -0.4967 -5.1805 0.0 0
M  V30 14 O -4.2579 -6.4697 0.0 0
M  V30 15 C -6.5052 -5.1686 0.0 0 CFG=1
M  V30 16 O 0.2365 -6.4697 0.0 0
M  V30 17 N -7.2621 -6.4579 0.0 0
M  V30 18 C -7.2621 -3.8558 0.0 0
M  V30 19 C -8.7761 -6.446 0.0 0
M  V30 20 C -6.5288 -2.5429 0.0 0
M  V30 21 O -9.5331 -5.1332 0.0 0
M  V30 22 C -9.5331 -7.7353 0.0 0
M  V30 23 C -5.2396 -3.288 0.0 0
M  V30 24 C -7.8417 -1.7859 0.0 0
M  V30 25 C -5.7955 -1.23 0.0 0
M  V30 26 N -8.9298 -9.0954 0.0 0
M  V30 27 C -11.0352 -7.8772 0.0 0
M  V30 28 C -10.0535 -10.089 0.0 0
M  V30 29 C -11.3545 -9.332 0.0 0
M  V30 30 C -10.0653 -11.5792 0.0 0
M  V30 31 C -12.6674 -10.0653 0.0 0
M  V30 32 C -11.3782 -12.3244 0.0 0
M  V30 33 O -13.9803 -9.3083 0.0 0
M  V30 34 C -12.6792 -11.5556 0.0 0
M  V30 35 C -15.2931 -10.0416 0.0 0
M  V30 END ATOM
M  V30 BEGIN BOND
M  V30 1 2 1 2
M  V30 2 1 2 3
M  V30 3 1 2 4
M  V30 4 1 3 5
M  V30 5 1 4 6
M  V30 6 1 4 7 CFG=1
M  V30 7 1 7 8
M  V30 8 1 8 9 CFG=1
M  V30 9 1 8 10
M  V30 10 1 9 11
M  V30 11 2 10 12
M  V30 12 1 10 13
M  V30 13 2 11 14
M  V30 14 1 11 15
M  V30 15 1 13 16
M  V30 16 1 15 17 CFG=1
M  V30 17 1 15 18
M  V30 18 1 17 19
M  V30 19 1 18 20
M  V30 20 2 19 21
M  V30 21 1 19 22
M  V30 22 1 20 23
M  V30 23 1 20 24
M  V30 24 1 20 25
M  V30 25 2 22 26
M  V30 26 1 22 27
M  V30 27 1 26 28
M  V30 28 2 27 29
M  V30 29 1 28 30
M  V30 30 1 29 31
M  V30 31 2 30 32
M  V30 32 1 31 33
M  V30 33 2 31 34
M  V30 34 1 33 35
M  V30 35 1 5 6
M  V30 36 1 28 29
M  V30 37 1 32 34
M  V30 END BOND
M  V30 BEGIN COLLECTION
M  V30 MDLV30/STEABS ATOMS=(3 4 8 15)
M  V30 END COLLECTION
M  V30 END CTAB
M  END
>  <Ligand InChI>
InChI=1S/C25H34N4O6/c1-25(2,3)12-19(24(34)28-17(20(31)13-30)10-14-8-9-26-22(14)32)29-23(33)18-11-15-16(27-18)6-5-7-21(15)35-4/h5-7,11,14,17,19,27,30H,8-10,12-13H2,1-4H3,(H,26,32)(H,28,34)(H,29,33)/t14-,17-,19-/m0/s1

>  <Ligand InChI Key>
CEMUHRBVCDSEOL-FNHZYXHNSA-N

>  <BindingDB MonomerID>
423418

>  <Target Name Assigned by Curator or DataSource>
3C-like proteinase (3CL-PRO)

>  <Target Source Organism According to Curator or DataSource>
Human SARS coronavirus

>  <IC50 (nM)>
23

>  <PMID>
WO2005113580A1

>  <Ligand HET ID in PDB>


>  <PDB ID(s) for Ligand-Target Complex>


>  <PubChem CID>


>  <PubChem SID>


>  <ChEMBL ID of Ligand>


>  <DrugBank ID of Ligand>


>  <ZINC ID of Ligand>


>  <PDB ID(s) of Target Chain>
1Q2W,1QZ8,1UJ1,1UK2,1UK3,1UK4,1UW7,1WOF,1Z1I,2A5A,2A5I,2A5K,2ACF,2AHM,2ALV,2AMD,2AMQ,2BX3,2BX4,2C3S,2D2D,2DUC,2FAV,2FE8,2FYG,2G9T,2GA6,2GDT,2GRI,2GT7,2GT8,2GTB,2GX4,2GZ7,2GZ8,2GZ9,2H2Z,2HOB,2HSX,2IDY,2JZF,2K7X,2K87,2KAF,2LIZ,2OP9,2OZK,2RNK,2V6N,2VJ1,2XYQ,2XYR,2XYV,2Z3C,2Z3D,2Z3E,2Z94,2Z9G,2Z9J,2Z9K,2Z9L,2ZU4,2ZU5,3D62,3E91,3E9S,3EA7,3EA8,3EBN,3IWM,3M3V,3MJ5,3R24,3SN8,3SNA,3SNB,3SNC,3SND,3SNE,3SZN,3TIT,3TIU,3TNS,3TNT,3V3M,3VB3,3VB4,3VB5,3VB6,3VB7,4MDS,4MM3,4OVZ,4OW0,5C8S,5C8T,5C8U,5F22,5N19,5N5O,5NFY,5TL6,5TL7,5Y3E,5Y3Q,6JYT,6LNQ,6LNY,6LO0,6NUR,6NUS,6W2A,6W79,6WCO,6XHL,6XHN,6XHO,6XMK,6XOA,7C2K,7JOY

>  <Smiles>
CC(C)(C)C[C@@H](C(N[C@@H](C[C@H](CCN1)C1=O)C(CO)=O)=O)NC(C1=NC(C=CC=C2OC)C2=C1)=O

$$$$
423419
Actelion Java MolfileCreator 2.0

  0  0  0  0  0  0              0 V3000
M  V30 BEGIN CTAB
M  V30 COUNTS 36 38 0 0 0
M  V30 BEGIN ATOM
M  V30 1 O 0.0 0.0 0.0 0
M  V30 2 C 1.4606 -0.2968 0.0 0
M  V30 3 N 2.565 0.7244 0.0 0
M  V30 4 C 2.0663 -1.6625 0.0 0 CFG=1
M  V30 5 C 3.8595 -0.0118 0.0 0
M  V30 6 C 3.5507 -1.4963 0.0 0
M  V30 7 C 1.3063 -2.9569 0.0 0
M  V30 8 C 2.0425 -4.2514 0.0 0 CFG=2
M  V30 9 N 1.2825 -5.5458 0.0 0
M  V30 10 C 3.5388 -4.2395 0.0 0
M  V30 11 C 2.0188 -6.8402 0.0 0
M  V30 12 O 4.2751 -2.9213 0.0 0
M  V30 13 C 4.2751 -5.5339 0.0 0
M  V30 14 O 3.5151 -6.8283 0.0 0
M  V30 15 C 1.2587 -8.1346 0.0 0 CFG=1
M  V30 16 O 5.7714 -5.522 0.0 0
M  V30 17 N 1.995 -9.4291 0.0 0
M  V30 18 C -0.2612 -8.1228 0.0 0
M  V30 19 C 6.5077 -6.8165 0.0 0
M  V30 20 C 1.235 -10.7235 0.0 0
M  V30 21 C -1.0331 -6.8046 0.0 0
M  V30 22 O -0.285 -10.7116 0.0 0
M  V30 23 C 1.9713 -12.0179 0.0 0
M  V30 24 C 0.2612 -6.0446 0.0 0
M  V30 25 C -2.3513 -7.5409 0.0 0
M  V30 26 C -1.7931 -5.4864 0.0 0
M  V30 27 N 3.4557 -12.1604 0.0 0
M  V30 28 C 1.3419 -13.3836 0.0 0
M  V30 29 C 3.7526 -13.6211 0.0 0
M  V30 30 C 2.4463 -14.3811 0.0 0
M  V30 31 C 5.047 -14.3693 0.0 0
M  V30 32 C 2.4344 -15.8774 0.0 0
M  V30 33 C 5.0351 -15.8656 0.0 0
M  V30 34 O 1.1162 -16.6137 0.0 0
M  V30 35 C 3.7288 -16.6137 0.0 0
M  V30 36 C 1.1044 -18.11 0.0 0
M  V30 END ATOM
M  V30 BEGIN BOND
M  V30 1 2 1 2
M  V30 2 1 2 3
M  V30 3 1 2 4
M  V30 4 1 3 5
M  V30 5 1 4 6
M  V30 6 1 4 7 CFG=1
M  V30 7 1 7 8
M  V30 8 1 8 9 CFG=1
M  V30 9 1 8 10
M  V30 10 1 9 11
M  V30 11 2 10 12
M  V30 12 1 10 13
M  V30 13 2 11 14
M  V30 14 1 11 15
M  V30 15 1 13 16
M  V30 16 1 15 17 CFG=1
M  V30 17 1 15 18
M  V30 18 1 16 19
M  V30 19 1 17 20
M  V30 20 1 18 21
M  V30 21 2 20 22
M  V30 22 1 20 23
M  V30 23 1 21 24
M  V30 24 1 21 25
M  V30 25 1 21 26
M  V30 26 2 23 27
M  V30 27 1 23 28
M  V30 28 1 27 29
M  V30 29 2 28 30
M  V30 30 1 29 31
M  V30 31 1 30 32
M  V30 32 2 31 33
M  V30 33 1 32 34
M  V30 34 2 32 35
M  V30 35 1 34 36
M  V30 36 1 5 6
M  V30 37 1 29 30
M  V30 38 1 33 35
M  V30 END BOND
M  V30 BEGIN COLLECTION
M  V30 MDLV30/STEABS ATOMS=(3 4 8 15)
M  V30 END COLLECTION
M  V30 END CTAB
M  END
>  <Ligand InChI>
InChI=1S/C26H36N4O6/c1-26(2,3)13-20(30-24(33)19-12-16-17(28-19)7-6-8-22(16)36-5)25(34)29-18(21(31)14-35-4)11-15-9-10-27-23(15)32/h6-8,12,15,18,20,28H,9-11,13-14H2,1-5H3,(H,27,32)(H,29,34)(H,30,33)/t15-,18-,20-/m0/s1

>  <Ligand InChI Key>
PEWZDBOBEGIBSD-QSFXBCCZSA-N

>  <BindingDB MonomerID>
423419

>  <Target Name Assigned by Curator or DataSource>
3C-like proteinase (3CL-PRO)

>  <Target Source Organism According to Curator or DataSource>
Human SARS coronavirus

>  <IC50 (nM)>
54

>  <PMID>
WO2005113580A1

>  <Ligand HET ID in PDB>


>  <PDB ID(s) for Ligand-Target Complex>


>  <PubChem CID>


>  <PubChem SID>


>  <ChEMBL ID of Ligand>


>  <DrugBank ID of Ligand>


>  <ZINC ID of Ligand>


>  <PDB ID(s) of Target Chain>
1Q2W,1QZ8,1UJ1,1UK2,1UK3,1UK4,1UW7,1WOF,1Z1I,2A5A,2A5I,2A5K,2ACF,2AHM,2ALV,2AMD,2AMQ,2BX3,2BX4,2C3S,2D2D,2DUC,2FAV,2FE8,2FYG,2G9T,2GA6,2GDT,2GRI,2GT7,2GT8,2GTB,2GX4,2GZ7,2GZ8,2GZ9,2H2Z,2HOB,2HSX,2IDY,2JZF,2K7X,2K87,2KAF,2LIZ,2OP9,2OZK,2RNK,2V6N,2VJ1,2XYQ,2XYR,2XYV,2Z3C,2Z3D,2Z3E,2Z94,2Z9G,2Z9J,2Z9K,2Z9L,2ZU4,2ZU5,3D62,3E91,3E9S,3EA7,3EA8,3EBN,3IWM,3M3V,3MJ5,3R24,3SN8,3SNA,3SNB,3SNC,3SND,3SNE,3SZN,3TIT,3TIU,3TNS,3TNT,3V3M,3VB3,3VB4,3VB5,3VB6,3VB7,4MDS,4MM3,4OVZ,4OW0,5C8S,5C8T,5C8U,5F22,5N19,5N5O,5NFY,5TL6,5TL7,5Y3E,5Y3Q,6JYT,6LNQ,6LNY,6LO0,6NUR,6NUS,6W2A,6W79,6WCO,6XHL,6XHN,6XHO,6XMK,6XOA,7C2K,7JOY

>  <Smiles>
CC(C)(C)C[C@@H](C(N[C@@H](C[C@H](CCN1)C1=O)C(COC)=O)=O)NC(C1=NC(C=CC=C2OC)C2=C1)=O

$$$$
423420
Actelion Java MolfileCreator 2.0

  0  0  0  0  0  0              0 V3000
M  V30 BEGIN CTAB
M  V30 COUNTS 33 35 0 0 0
M  V30 BEGIN ATOM
M  V30 1 O 0.0 0.0 0.0 0
M  V30 2 C 1.0954 1.013 0.0 0
M  V30 3 N 2.5443 0.7185 0.0 0
M  V30 4 C 0.9305 2.509 0.0 0 CFG=1
M  V30 5 C 3.2746 2.026 0.0 0
M  V30 6 C 2.2852 3.1333 0.0 0
M  V30 7 C -0.3769 3.2628 0.0 0
M  V30 8 C -0.3887 4.7706 0.0 0 CFG=2
M  V30 9 N -1.6962 5.5363 0.0 0
M  V30 10 C 0.8952 5.5363 0.0 0
M  V30 11 C -1.708 7.044 0.0 0
M  V30 12 O 2.1791 4.7942 0.0 0
M  V30 13 C 0.8834 7.044 0.0 0
M  V30 14 O -0.424 7.7979 0.0 0
M  V30 15 C -3.0155 7.7979 0.0 0 CFG=1
M  V30 16 O 2.1674 7.7979 0.0 0
M  V30 17 N -3.0273 9.3057 0.0 0
M  V30 18 C -4.323 7.0676 0.0 0
M  V30 19 C -4.3348 10.0595 0.0 0
M  V30 20 C -4.3348 5.5834 0.0 0
M  V30 21 O -5.6423 9.3292 0.0 0
M  V30 22 C -4.3465 11.5673 0.0 0
M  V30 23 C -5.8425 5.5952 0.0 0
M  V30 24 C -2.8506 5.5952 0.0 0
M  V30 25 C -4.3465 4.0992 0.0 0
M  V30 26 N -5.5716 12.4625 0.0 0
M  V30 27 C -3.145 12.4625 0.0 0
M  V30 28 C -5.124 13.8996 0.0 0
M  V30 29 C -3.6162 13.8996 0.0 0
M  V30 30 C -5.8779 15.2071 0.0 0
M  V30 31 C -2.8859 15.2071 0.0 0
M  V30 32 C -5.1358 16.5146 0.0 0
M  V30 33 C -3.6398 16.5146 0.0 0
M  V30 END ATOM
M  V30 BEGIN BOND
M  V30 1 2 1 2
M  V30 2 1 2 3
M  V30 3 1 2 4
M  V30 4 1 3 5
M  V30 5 1 4 6
M  V30 6 1 4 7 CFG=3
M  V30 7 1 7 8
M  V30 8 1 8 9 CFG=3
M  V30 9 1 8 10
M  V30 10 1 9 11
M  V30 11 2 10 12
M  V30 12 1 10 13
M  V30 13 2 11 14
M  V30 14 1 11 15
M  V30 15 1 13 16
M  V30 16 1 15 17 CFG=3
M  V30 17 1 15 18
M  V30 18 1 17 19
M  V30 19 1 18 20
M  V30 20 2 19 21
M  V30 21 1 19 22
M  V30 22 1 20 23
M  V30 23 1 20 24
M  V30 24 1 20 25
M  V30 25 2 22 26
M  V30 26 1 22 27
M  V30 27 1 26 28
M  V30 28 2 27 29
M  V30 29 1 28 30
M  V30 30 1 29 31
M  V30 31 2 30 32
M  V30 32 2 31 33
M  V30 33 1 5 6
M  V30 34 1 28 29
M  V30 35 1 32 33
M  V30 END BOND
M  V30 BEGIN COLLECTION
M  V30 MDLV30/STEABS ATOMS=(3 4 8 15)
M  V30 END COLLECTION
M  V30 END CTAB
M  END
>  <Ligand InChI>
InChI=1S/C24H32N4O5/c1-24(2,3)12-19(28-22(32)18-10-14-6-4-5-7-16(14)26-18)23(33)27-17(20(30)13-29)11-15-8-9-25-21(15)31/h4-7,10,15,17,19,26,29H,8-9,11-13H2,1-3H3,(H,25,31)(H,27,33)(H,28,32)/t15-,17-,19-/m0/s1

>  <Ligand InChI Key>
ZWIJIAMEZDPIBS-IEZWGBDMSA-N

>  <BindingDB MonomerID>
423420

>  <Target Name Assigned by Curator or DataSource>
3C-like proteinase (3CL-PRO)

>  <Target Source Organism According to Curator or DataSource>
Human SARS coronavirus

>  <IC50 (nM)>
20

>  <PMID>
WO2005113580A1

>  <Ligand HET ID in PDB>


>  <PDB ID(s) for Ligand-Target Complex>


>  <PubChem CID>


>  <PubChem SID>


>  <ChEMBL ID of Ligand>


>  <DrugBank ID of Ligand>


>  <ZINC ID of Ligand>


>  <PDB ID(s) of Target Chain>
1Q2W,1QZ8,1UJ1,1UK2,1UK3,1UK4,1UW7,1WOF,1Z1I,2A5A,2A5I,2A5K,2ACF,2AHM,2ALV,2AMD,2AMQ,2BX3,2BX4,2C3S,2D2D,2DUC,2FAV,2FE8,2FYG,2G9T,2GA6,2GDT,2GRI,2GT7,2GT8,2GTB,2GX4,2GZ7,2GZ8,2GZ9,2H2Z,2HOB,2HSX,2IDY,2JZF,2K7X,2K87,2KAF,2LIZ,2OP9,2OZK,2RNK,2V6N,2VJ1,2XYQ,2XYR,2XYV,2Z3C,2Z3D,2Z3E,2Z94,2Z9G,2Z9J,2Z9K,2Z9L,2ZU4,2ZU5,3D62,3E91,3E9S,3EA7,3EA8,3EBN,3IWM,3M3V,3MJ5,3R24,3SN8,3SNA,3SNB,3SNC,3SND,3SNE,3SZN,3TIT,3TIU,3TNS,3TNT,3V3M,3VB3,3VB4,3VB5,3VB6,3VB7,4MDS,4MM3,4OVZ,4OW0,5C8S,5C8T,5C8U,5F22,5N19,5N5O,5NFY,5TL6,5TL7,5Y3E,5Y3Q,6JYT,6LNQ,6LNY,6LO0,6NUR,6NUS,6W2A,6W79,6WCO,6XHL,6XHN,6XHO,6XMK,6XOA,7C2K,7JOY

>  <Smiles>
CC(C)(C)C[C@@H](C(N[C@@H](C[C@H](CCN1)C1=O)C(CO)=O)=O)NC(C1=NC(C=CC=C2)C2=C1)=O

$$$$
423421
Actelion Java MolfileCreator 2.0

  0  0  0  0  0  0              0 V3000
M  V30 BEGIN CTAB
M  V30 COUNTS 34 36 0 0 0
M  V30 BEGIN ATOM
M  V30 1 O 0.0 0.0 0.0 0
M  V30 2 C 1.096 1.0135 0.0 0
M  V30 3 N 2.5457 0.7189 0.0 0
M  V30 4 C 0.931 2.5103 0.0 0 CFG=1
M  V30 5 C 3.2764 2.0271 0.0 0
M  V30 6 C 2.2864 3.1349 0.0 0
M  V30 7 C -0.3771 3.2646 0.0 0
M  V30 8 C -0.3889 4.7732 0.0 0 CFG=2
M  V30 9 N -1.6971 5.5274 0.0 0
M  V30 10 C 0.8957 5.5274 0.0 0
M  V30 11 C -1.7089 7.036 0.0 0
M  V30 12 O 0.8839 7.036 0.0 0
M  V30 13 C 2.1803 4.7967 0.0 0
M  V30 14 O -0.4242 7.7903 0.0 0
M  V30 15 C -3.0171 7.7903 0.0 0 CFG=1
M  V30 16 O 3.4649 5.551 0.0 0
M  V30 17 N -3.0289 9.2989 0.0 0
M  V30 18 C -4.3253 7.0478 0.0 0
M  V30 19 C 4.7496 4.8203 0.0 0
M  V30 20 C -4.3371 10.0531 0.0 0
M  V30 21 C -4.3371 5.5628 0.0 0
M  V30 22 O -5.6453 9.3224 0.0 0
M  V30 23 C -4.3489 11.5617 0.0 0
M  V30 24 C -5.8456 5.5746 0.0 0
M  V30 25 C -2.8521 5.5746 0.0 0
M  V30 26 C -4.3489 4.0778 0.0 0
M  V30 27 N -5.5746 12.4574 0.0 0
M  V30 28 C -3.1467 12.4574 0.0 0
M  V30 29 C -5.1267 13.8953 0.0 0
M  V30 30 C -3.6182 13.8953 0.0 0
M  V30 31 C -5.881 15.2035 0.0 0
M  V30 32 C -2.8874 15.2035 0.0 0
M  V30 33 C -5.1503 16.5117 0.0 0
M  V30 34 C -3.6417 16.5117 0.0 0
M  V30 END ATOM
M  V30 BEGIN BOND
M  V30 1 2 1 2
M  V30 2 1 2 3
M  V30 3 1 2 4
M  V30 4 1 3 5
M  V30 5 1 4 6
M  V30 6 1 4 7 CFG=3
M  V30 7 1 7 8
M  V30 8 1 8 9 CFG=3
M  V30 9 1 8 10
M  V30 10 1 9 11
M  V30 11 2 10 12
M  V30 12 1 10 13
M  V30 13 2 11 14
M  V30 14 1 11 15
M  V30 15 1 13 16
M  V30 16 1 15 17 CFG=3
M  V30 17 1 15 18
M  V30 18 1 16 19
M  V30 19 1 17 20
M  V30 20 1 18 21
M  V30 21 2 20 22
M  V30 22 1 20 23
M  V30 23 1 21 24
M  V30 24 1 21 25
M  V30 25 1 21 26
M  V30 26 2 23 27
M  V30 27 1 23 28
M  V30 28 1 27 29
M  V30 29 2 28 30
M  V30 30 1 29 31
M  V30 31 1 30 32
M  V30 32 2 31 33
M  V30 33 2 32 34
M  V30 34 1 5 6
M  V30 35 1 29 30
M  V30 36 1 33 34
M  V30 END BOND
M  V30 BEGIN COLLECTION
M  V30 MDLV30/STEABS ATOMS=(3 4 8 15)
M  V30 END COLLECTION
M  V30 END CTAB
M  END
>  <Ligand InChI>
InChI=1S/C25H34N4O5/c1-25(2,3)13-20(29-23(32)19-11-15-7-5-6-8-17(15)27-19)24(33)28-18(21(30)14-34-4)12-16-9-10-26-22(16)31/h5-8,11,16,18,20,27H,9-10,12-14H2,1-4H3,(H,26,31)(H,28,33)(H,29,32)/t16-,18-,20-/m0/s1

>  <Ligand InChI Key>
IULLQBINVRGFGJ-QRFRQXIXSA-N

>  <BindingDB MonomerID>
423421

>  <Target Name Assigned by Curator or DataSource>
3C-like proteinase (3CL-PRO)

>  <Target Source Organism According to Curator or DataSource>
Human SARS coronavirus

>  <IC50 (nM)>
105

>  <PMID>
WO2005113580A1

>  <Ligand HET ID in PDB>


>  <PDB ID(s) for Ligand-Target Complex>


>  <PubChem CID>


>  <PubChem SID>


>  <ChEMBL ID of Ligand>


>  <DrugBank ID of Ligand>


>  <ZINC ID of Ligand>


>  <PDB ID(s) of Target Chain>
1Q2W,1QZ8,1UJ1,1UK2,1UK3,1UK4,1UW7,1WOF,1Z1I,2A5A,2A5I,2A5K,2ACF,2AHM,2ALV,2AMD,2AMQ,2BX3,2BX4,2C3S,2D2D,2DUC,2FAV,2FE8,2FYG,2G9T,2GA6,2GDT,2GRI,2GT7,2GT8,2GTB,2GX4,2GZ7,2GZ8,2GZ9,2H2Z,2HOB,2HSX,2IDY,2JZF,2K7X,2K87,2KAF,2LIZ,2OP9,2OZK,2RNK,2V6N,2VJ1,2XYQ,2XYR,2XYV,2Z3C,2Z3D,2Z3E,2Z94,2Z9G,2Z9J,2Z9K,2Z9L,2ZU4,2ZU5,3D62,3E91,3E9S,3EA7,3EA8,3EBN,3IWM,3M3V,3MJ5,3R24,3SN8,3SNA,3SNB,3SNC,3SND,3SNE,3SZN,3TIT,3TIU,3TNS,3TNT,3V3M,3VB3,3VB4,3VB5,3VB6,3VB7,4MDS,4MM3,4OVZ,4OW0,5C8S,5C8T,5C8U,5F22,5N19,5N5O,5NFY,5TL6,5TL7,5Y3E,5Y3Q,6JYT,6LNQ,6LNY,6LO0,6NUR,6NUS,6W2A,6W79,6WCO,6XHL,6XHN,6XHO,6XMK,6XOA,7C2K,7JOY

>  <Smiles>
CC(C)(C)C[C@@H](C(N[C@@H](C[C@H](CCN1)C1=O)C(COC)=O)=O)NC(C1=NC(C=CC=C2)C2=C1)=O

$$$$
423422
Actelion Java MolfileCreator 2.0

  0  0  0  0  0  0              0 V3000
M  V30 BEGIN CTAB
M  V30 COUNTS 35 37 0 0 0
M  V30 BEGIN ATOM
M  V30 1 O 0.0 0.0 0.0 0
M  V30 2 C 1.1 -0.9936 0.0 0
M  V30 3 N 2.5549 -0.6742 0.0 0
M  V30 4 C 0.9344 -2.4721 0.0 0 CFG=1
M  V30 5 C 3.3001 -1.9635 0.0 0
M  V30 6 C 2.2947 -3.0754 0.0 0
M  V30 7 C -0.3785 -3.2055 0.0 0
M  V30 8 C -0.3903 -4.6959 0.0 0 CFG=2
M  V30 9 N -1.7033 -5.4293 0.0 0
M  V30 10 C 0.8989 -5.4293 0.0 0
M  V30 11 C -3.0163 -4.6723 0.0 0
M  V30 12 O 0.8871 -6.9197 0.0 0
M  V30 13 C 2.1883 -4.6723 0.0 0
M  V30 14 O -3.0281 -3.1582 0.0 0
M  V30 15 C -4.3292 -5.4056 0.0 0 CFG=1
M  V30 16 O 3.4776 -5.4056 0.0 0
M  V30 17 N -5.6422 -4.6486 0.0 0
M  V30 18 C -4.3411 -6.8961 0.0 0
M  V30 19 C 4.7669 -4.6486 0.0 0
M  V30 20 C -6.9552 -5.382 0.0 0
M  V30 21 C -3.0517 -7.6294 0.0 0
M  V30 22 C 6.0562 -5.382 0.0 0
M  V30 23 O -6.967 -6.8724 0.0 0
M  V30 24 C -8.2682 -4.625 0.0 0
M  V30 25 C -3.8088 -8.9188 0.0 0
M  V30 26 C -2.3184 -6.3165 0.0 0
M  V30 27 C -1.7624 -8.3628 0.0 0
M  V30 28 N -9.6521 -5.2282 0.0 0
M  V30 29 C -8.4338 -3.1227 0.0 0
M  V30 30 C -10.6694 -4.1045 0.0 0
M  V30 31 C -9.9124 -2.8033 0.0 0
M  V30 32 C -12.1835 -4.0927 0.0 0
M  V30 33 C -10.6694 -1.4904 0.0 0
M  V30 34 C -12.9405 -2.7797 0.0 0
M  V30 35 C -12.1835 -1.4785 0.0 0
M  V30 END ATOM
M  V30 BEGIN BOND
M  V30 1 2 1 2
M  V30 2 1 2 3
M  V30 3 1 2 4
M  V30 4 1 3 5
M  V30 5 1 4 6
M  V30 6 1 4 7 CFG=1
M  V30 7 1 7 8
M  V30 8 1 8 9 CFG=1
M  V30 9 1 8 10
M  V30 10 1 9 11
M  V30 11 2 10 12
M  V30 12 1 10 13
M  V30 13 2 11 14
M  V30 14 1 11 15
M  V30 15 1 13 16
M  V30 16 1 15 17 CFG=3
M  V30 17 1 15 18
M  V30 18 1 16 19
M  V30 19 1 17 20
M  V30 20 1 18 21
M  V30 21 1 19 22
M  V30 22 2 20 23
M  V30 23 1 20 24
M  V30 24 1 21 25
M  V30 25 1 21 26
M  V30 26 1 21 27
M  V30 27 2 24 28
M  V30 28 1 24 29
M  V30 29 1 28 30
M  V30 30 2 29 31
M  V30 31 1 30 32
M  V30 32 1 31 33
M  V30 33 2 32 34
M  V30 34 2 33 35
M  V30 35 1 5 6
M  V30 36 1 30 31
M  V30 37 1 34 35
M  V30 END BOND
M  V30 BEGIN COLLECTION
M  V30 MDLV30/STEABS ATOMS=(3 4 8 15)
M  V30 END COLLECTION
M  V30 END CTAB
M  END
>  <Ligand InChI>
InChI=1S/C26H36N4O5/c1-5-35-15-22(31)19(13-17-10-11-27-23(17)32)29-25(34)21(14-26(2,3)4)30-24(33)20-12-16-8-6-7-9-18(16)28-20/h6-9,12,17,19,21,28H,5,10-11,13-15H2,1-4H3,(H,27,32)(H,29,34)(H,30,33)/t17-,19-,21-/m0/s1

>  <Ligand InChI Key>
KSTGVGSBRODERS-CUWPLCDZSA-N

>  <BindingDB MonomerID>
423422

>  <Target Name Assigned by Curator or DataSource>
3C-like proteinase (3CL-PRO)

>  <Target Source Organism According to Curator or DataSource>
Human SARS coronavirus

>  <IC50 (nM)>
112

>  <PMID>
WO2005113580A1

>  <Ligand HET ID in PDB>


>  <PDB ID(s) for Ligand-Target Complex>


>  <PubChem CID>


>  <PubChem SID>


>  <ChEMBL ID of Ligand>


>  <DrugBank ID of Ligand>


>  <ZINC ID of Ligand>


>  <PDB ID(s) of Target Chain>
1Q2W,1QZ8,1UJ1,1UK2,1UK3,1UK4,1UW7,1WOF,1Z1I,2A5A,2A5I,2A5K,2ACF,2AHM,2ALV,2AMD,2AMQ,2BX3,2BX4,2C3S,2D2D,2DUC,2FAV,2FE8,2FYG,2G9T,2GA6,2GDT,2GRI,2GT7,2GT8,2GTB,2GX4,2GZ7,2GZ8,2GZ9,2H2Z,2HOB,2HSX,2IDY,2JZF,2K7X,2K87,2KAF,2LIZ,2OP9,2OZK,2RNK,2V6N,2VJ1,2XYQ,2XYR,2XYV,2Z3C,2Z3D,2Z3E,2Z94,2Z9G,2Z9J,2Z9K,2Z9L,2ZU4,2ZU5,3D62,3E91,3E9S,3EA7,3EA8,3EBN,3IWM,3M3V,3MJ5,3R24,3SN8,3SNA,3SNB,3SNC,3SND,3SNE,3SZN,3TIT,3TIU,3TNS,3TNT,3V3M,3VB3,3VB4,3VB5,3VB6,3VB7,4MDS,4MM3,4OVZ,4OW0,5C8S,5C8T,5C8U,5F22,5N19,5N5O,5NFY,5TL6,5TL7,5Y3E,5Y3Q,6JYT,6LNQ,6LNY,6LO0,6NUR,6NUS,6W2A,6W79,6WCO,6XHL,6XHN,6XHO,6XMK,6XOA,7C2K,7JOY

>  <Smiles>
CCOCC([C@H](C[C@H](CCN1)C1=O)NC([C@H](CC(C)(C)C)NC(C1=NC(C=CC=C2)C2=C1)=O)=O)=O

$$$$
423423
Actelion Java MolfileCreator 2.0

  0  0  0  0  0  0              0 V3000
M  V30 BEGIN CTAB
M  V30 COUNTS 29 30 0 0 0
M  V30 BEGIN ATOM
M  V30 1 O 0.0 0.0 0.0 0
M  V30 2 C 0.4495 -1.4195 0.0 0
M  V30 3 N 1.869 -1.869 0.0 0
M  V30 4 C -0.4495 -2.6261 0.0 0 CFG=1
M  V30 5 C 1.8572 -3.3595 0.0 0
M  V30 6 C 0.4258 -3.8327 0.0 0
M  V30 7 C -1.9636 -2.6143 0.0 0
M  V30 8 C -2.7325 -3.9037 0.0 0 CFG=2
M  V30 9 N -4.2467 -3.8918 0.0 0
M  V30 10 C -1.9873 -5.1931 0.0 0
M  V30 11 C -5.0038 -5.1812 0.0 0
M  V30 12 O -2.7562 -6.4825 0.0 0
M  V30 13 C -0.4968 -5.1812 0.0 0
M  V30 14 O -4.2704 -6.4706 0.0 0
M  V30 15 C -6.518 -5.1694 0.0 0 CFG=1
M  V30 16 O 0.2365 -6.4706 0.0 0
M  V30 17 N -7.2751 -6.4588 0.0 0
M  V30 18 C -7.2751 -3.8563 0.0 0
M  V30 19 C -8.7892 -6.447 0.0 0
M  V30 20 C -6.5298 -2.5433 0.0 0
M  V30 21 O -9.5463 -5.1339 0.0 0
M  V30 22 C -9.5463 -7.7364 0.0 0 CFG=2
M  V30 23 C -5.2404 -3.2767 0.0 0
M  V30 24 C -7.8429 -1.7862 0.0 0
M  V30 25 C -5.7964 -1.2302 0.0 0
M  V30 26 O -11.0486 -7.8784 0.0 0
M  V30 27 C -8.943 -9.0968 0.0 0
M  V30 28 C -11.368 -9.3334 0.0 0
M  V30 29 C -10.0668 -10.0905 0.0 0
M  V30 END ATOM
M  V30 BEGIN BOND
M  V30 1 2 1 2
M  V30 2 1 2 3
M  V30 3 1 2 4
M  V30 4 1 3 5
M  V30 5 1 4 6
M  V30 6 1 4 7 CFG=1
M  V30 7 1 7 8
M  V30 8 1 8 9 CFG=1
M  V30 9 1 8 10
M  V30 10 1 9 11
M  V30 11 2 10 12
M  V30 12 1 10 13
M  V30 13 2 11 14
M  V30 14 1 11 15
M  V30 15 1 13 16
M  V30 16 1 15 17 CFG=1
M  V30 17 1 15 18
M  V30 18 1 17 19
M  V30 19 1 18 20
M  V30 20 2 19 21
M  V30 21 1 22 19 CFG=1
M  V30 22 1 20 23
M  V30 23 1 20 24
M  V30 24 1 20 25
M  V30 25 1 22 26
M  V30 26 1 22 27
M  V30 27 1 26 28
M  V30 28 1 27 29
M  V30 29 1 5 6
M  V30 30 1 28 29
M  V30 END BOND
M  V30 BEGIN COLLECTION
M  V30 MDLV30/STEABS ATOMS=(4 4 8 15 22)
M  V30 END COLLECTION
M  V30 END CTAB
M  END
>  <Ligand InChI>
InChI=1S/C20H33N3O6/c1-20(2,3)10-14(23-19(28)16-5-4-8-29-16)18(27)22-13(15(25)11-24)9-12-6-7-21-17(12)26/h12-14,16,24H,4-11H2,1-3H3,(H,21,26)(H,22,27)(H,23,28)/t12-,13-,14-,16+/m0/s1

>  <Ligand InChI Key>
PFJSVGDZMGOTSD-RZLSGREXSA-N

>  <BindingDB MonomerID>
423423

>  <Target Name Assigned by Curator or DataSource>
3C-like proteinase (3CL-PRO)

>  <Target Source Organism According to Curator or DataSource>
Human SARS coronavirus

>  <IC50 (nM)>
91

>  <PMID>
WO2005113580A1

>  <Ligand HET ID in PDB>


>  <PDB ID(s) for Ligand-Target Complex>


>  <PubChem CID>


>  <PubChem SID>


>  <ChEMBL ID of Ligand>


>  <DrugBank ID of Ligand>


>  <ZINC ID of Ligand>


>  <PDB ID(s) of Target Chain>
1Q2W,1QZ8,1UJ1,1UK2,1UK3,1UK4,1UW7,1WOF,1Z1I,2A5A,2A5I,2A5K,2ACF,2AHM,2ALV,2AMD,2AMQ,2BX3,2BX4,2C3S,2D2D,2DUC,2FAV,2FE8,2FYG,2G9T,2GA6,2GDT,2GRI,2GT7,2GT8,2GTB,2GX4,2GZ7,2GZ8,2GZ9,2H2Z,2HOB,2HSX,2IDY,2JZF,2K7X,2K87,2KAF,2LIZ,2OP9,2OZK,2RNK,2V6N,2VJ1,2XYQ,2XYR,2XYV,2Z3C,2Z3D,2Z3E,2Z94,2Z9G,2Z9J,2Z9K,2Z9L,2ZU4,2ZU5,3D62,3E91,3E9S,3EA7,3EA8,3EBN,3IWM,3M3V,3MJ5,3R24,3SN8,3SNA,3SNB,3SNC,3SND,3SNE,3SZN,3TIT,3TIU,3TNS,3TNT,3V3M,3VB3,3VB4,3VB5,3VB6,3VB7,4MDS,4MM3,4OVZ,4OW0,5C8S,5C8T,5C8U,5F22,5N19,5N5O,5NFY,5TL6,5TL7,5Y3E,5Y3Q,6JYT,6LNQ,6LNY,6LO0,6NUR,6NUS,6W2A,6W79,6WCO,6XHL,6XHN,6XHO,6XMK,6XOA,7C2K,7JOY

>  <Smiles>
CC(C)(C)C[C@@H](C(N[C@@H](C[C@H](CCN1)C1=O)C(CO)=O)=O)NC([C@@H]1OCCC1)=O

$$$$
423424
Actelion Java MolfileCreator 2.0

  0  0  0  0  0  0              0 V3000
M  V30 BEGIN CTAB
M  V30 COUNTS 30 31 0 0 0
M  V30 BEGIN ATOM
M  V30 1 O 0.0 0.0 0.0 0
M  V30 2 C 1.4604 -0.2968 0.0 0
M  V30 3 N 2.5647 0.7243 0.0 0
M  V30 4 C 2.066 -1.6623 0.0 0 CFG=1
M  V30 5 C 3.859 -0.0237 0.0 0
M  V30 6 C 3.5503 -1.4961 0.0 0
M  V30 7 C 1.3061 -2.9566 0.0 0
M  V30 8 C 2.0423 -4.2508 0.0 0 CFG=2
M  V30 9 N 1.2823 -5.5451 0.0 0
M  V30 10 C 3.5384 -4.239 0.0 0
M  V30 11 C 2.0185 -6.8394 0.0 0
M  V30 12 O 4.2746 -2.9209 0.0 0
M  V30 13 C 4.2746 -5.5332 0.0 0
M  V30 14 O 3.5146 -6.8275 0.0 0
M  V30 15 C 1.2586 -8.1336 0.0 0 CFG=1
M  V30 16 O 5.7707 -5.5214 0.0 0
M  V30 17 N 1.9948 -9.4279 0.0 0
M  V30 18 C -0.2612 -8.1218 0.0 0
M  V30 19 C 6.5069 -6.8156 0.0 0
M  V30 20 C 1.2348 -10.7222 0.0 0
M  V30 21 C -1.0211 -6.8037 0.0 0
M  V30 22 O -0.2849 -10.7103 0.0 0
M  V30 23 C 1.971 -12.0164 0.0 0 CFG=2
M  V30 24 C 0.2731 -6.0319 0.0 0
M  V30 25 C -2.3391 -7.5399 0.0 0
M  V30 26 C -1.781 -5.4857 0.0 0
M  V30 27 O 1.3417 -13.3819 0.0 0
M  V30 28 C 3.4553 -12.1589 0.0 0
M  V30 29 C 2.446 -14.3793 0.0 0
M  V30 30 C 3.7521 -13.6194 0.0 0
M  V30 END ATOM
M  V30 BEGIN BOND
M  V30 1 2 1 2
M  V30 2 1 2 3
M  V30 3 1 2 4
M  V30 4 1 3 5
M  V30 5 1 4 6
M  V30 6 1 4 7 CFG=1
M  V30 7 1 7 8
M  V30 8 1 8 9 CFG=1
M  V30 9 1 8 10
M  V30 10 1 9 11
M  V30 11 2 10 12
M  V30 12 1 10 13
M  V30 13 2 11 14
M  V30 14 1 11 15
M  V30 15 1 13 16
M  V30 16 1 15 17 CFG=1
M  V30 17 1 15 18
M  V30 18 1 16 19
M  V30 19 1 17 20
M  V30 20 1 18 21
M  V30 21 2 20 22
M  V30 22 1 23 20 CFG=1
M  V30 23 1 21 24
M  V30 24 1 21 25
M  V30 25 1 21 26
M  V30 26 1 23 27
M  V30 27 1 23 28
M  V30 28 1 27 29
M  V30 29 1 28 30
M  V30 30 1 5 6
M  V30 31 1 29 30
M  V30 END BOND
M  V30 BEGIN COLLECTION
M  V30 MDLV30/STEABS ATOMS=(4 4 8 15 23)
M  V30 END COLLECTION
M  V30 END CTAB
M  END
>  <Ligand InChI>
InChI=1S/C21H35N3O6/c1-21(2,3)11-15(24-20(28)17-6-5-9-30-17)19(27)23-14(16(25)12-29-4)10-13-7-8-22-18(13)26/h13-15,17H,5-12H2,1-4H3,(H,22,26)(H,23,27)(H,24,28)/t13-,14-,15-,17+/m0/s1

>  <Ligand InChI Key>
NSUYTSXGIVXGQN-QBYUYEEZSA-N

>  <BindingDB MonomerID>
423424

>  <Target Name Assigned by Curator or DataSource>
3C-like proteinase (3CL-PRO)

>  <Target Source Organism According to Curator or DataSource>
Human SARS coronavirus

>  <IC50 (nM)>
1080

>  <PMID>
WO2005113580A1

>  <Ligand HET ID in PDB>


>  <PDB ID(s) for Ligand-Target Complex>


>  <PubChem CID>


>  <PubChem SID>


>  <ChEMBL ID of Ligand>


>  <DrugBank ID of Ligand>


>  <ZINC ID of Ligand>


>  <PDB ID(s) of Target Chain>
1Q2W,1QZ8,1UJ1,1UK2,1UK3,1UK4,1UW7,1WOF,1Z1I,2A5A,2A5I,2A5K,2ACF,2AHM,2ALV,2AMD,2AMQ,2BX3,2BX4,2C3S,2D2D,2DUC,2FAV,2FE8,2FYG,2G9T,2GA6,2GDT,2GRI,2GT7,2GT8,2GTB,2GX4,2GZ7,2GZ8,2GZ9,2H2Z,2HOB,2HSX,2IDY,2JZF,2K7X,2K87,2KAF,2LIZ,2OP9,2OZK,2RNK,2V6N,2VJ1,2XYQ,2XYR,2XYV,2Z3C,2Z3D,2Z3E,2Z94,2Z9G,2Z9J,2Z9K,2Z9L,2ZU4,2ZU5,3D62,3E91,3E9S,3EA7,3EA8,3EBN,3IWM,3M3V,3MJ5,3R24,3SN8,3SNA,3SNB,3SNC,3SND,3SNE,3SZN,3TIT,3TIU,3TNS,3TNT,3V3M,3VB3,3VB4,3VB5,3VB6,3VB7,4MDS,4MM3,4OVZ,4OW0,5C8S,5C8T,5C8U,5F22,5N19,5N5O,5NFY,5TL6,5TL7,5Y3E,5Y3Q,6JYT,6LNQ,6LNY,6LO0,6NUR,6NUS,6W2A,6W79,6WCO,6XHL,6XHN,6XHO,6XMK,6XOA,7C2K,7JOY

>  <Smiles>
CC(C)(C)C[C@@H](C(N[C@@H](C[C@H](CCN1)C1=O)C(COC)=O)=O)NC([C@@H]1OCCC1)=O

$$$$
423426
Actelion Java MolfileCreator 2.0

  0  0  0  0  0  0              0 V3000
M  V30 BEGIN CTAB
M  V30 COUNTS 37 40 0 0 0
M  V30 BEGIN ATOM
M  V30 1 O 0.0 0.0 0.0 0
M  V30 2 C 0.1768 -1.4737 0.0 0
M  V30 3 N 1.4855 -2.1929 0.0 0
M  V30 4 C -0.9314 -2.4877 0.0 0 CFG=1
M  V30 5 C 1.1908 -3.6549 0.0 0
M  V30 6 C -0.3065 -3.8318 0.0 0
M  V30 7 C -2.4169 -2.1929 0.0 0
M  V30 8 C -3.4073 -3.313 0.0 0 CFG=2
M  V30 9 N -4.8929 -3.0182 0.0 0
M  V30 10 C -2.9239 -4.716 0.0 0
M  V30 11 C -5.8833 -4.1383 0.0 0
M  V30 12 O -3.9143 -5.8361 0.0 0
M  V30 13 C -1.4619 -4.9872 0.0 0
M  V30 14 O -5.3999 -5.5413 0.0 0
M  V30 15 C -7.3688 -3.8435 0.0 0 CFG=1
M  V30 16 O -0.9785 -6.3902 0.0 0
M  V30 17 N -8.3592 -4.9636 0.0 0
M  V30 18 C -7.8758 -2.4169 0.0 0
M  V30 19 C -9.8448 -4.6689 0.0 0
M  V30 20 C -6.909 -1.2733 0.0 0
M  V30 21 O -10.3517 -3.2423 0.0 0
M  V30 22 C -10.8351 -5.7889 0.0 0
M  V30 23 C -7.416 0.1532 0.0 0
M  V30 24 C -5.447 -1.5445 0.0 0
M  V30 25 N -10.505 -7.2391 0.0 0
M  V30 26 C -12.3443 -5.6474 0.0 0
M  V30 27 C -6.4492 1.2969 0.0 0
M  V30 28 C -4.4802 -0.4008 0.0 0
M  V30 29 C -11.8019 -8.0055 0.0 0
M  V30 30 C -12.9456 -7.0151 0.0 0
M  V30 31 C -4.9872 1.0257 0.0 0
M  V30 32 C -12.0967 -9.4675 0.0 0
M  V30 33 C -14.3722 -7.4985 0.0 0
M  V30 34 C -13.5233 -9.9509 0.0 0
M  V30 35 O -15.5158 -6.5081 0.0 0
M  V30 36 C -14.6669 -8.9605 0.0 0
M  V30 37 C -16.9424 -6.9915 0.0 0
M  V30 END ATOM
M  V30 BEGIN BOND
M  V30 1 2 1 2
M  V30 2 1 2 3
M  V30 3 1 2 4
M  V30 4 1 3 5
M  V30 5 1 4 6
M  V30 6 1 4 7 CFG=1
M  V30 7 1 7 8
M  V30 8 1 8 9 CFG=1
M  V30 9 1 8 10
M  V30 10 1 9 11
M  V30 11 2 10 12
M  V30 12 1 10 13
M  V30 13 2 11 14
M  V30 14 1 11 15
M  V30 15 1 13 16
M  V30 16 1 15 17 CFG=1
M  V30 17 1 15 18
M  V30 18 1 17 19
M  V30 19 1 18 20
M  V30 20 2 19 21
M  V30 21 1 19 22
M  V30 22 2 20 23
M  V30 23 1 20 24
M  V30 24 2 22 25
M  V30 25 1 22 26
M  V30 26 1 23 27
M  V30 27 2 24 28
M  V30 28 1 25 29
M  V30 29 2 26 30
M  V30 30 2 27 31
M  V30 31 1 29 32
M  V30 32 1 30 33
M  V30 33 2 32 34
M  V30 34 1 33 35
M  V30 35 2 33 36
M  V30 36 1 35 37
M  V30 37 1 5 6
M  V30 38 1 28 31
M  V30 39 1 29 30
M  V30 40 1 34 36
M  V30 END BOND
M  V30 BEGIN COLLECTION
M  V30 MDLV30/STEABS ATOMS=(3 4 8 15)
M  V30 END COLLECTION
M  V30 END CTAB
M  END
>  <Ligand InChI>
InChI=1S/C27H30N4O6/c1-37-24-9-5-8-19-18(24)14-22(29-19)27(36)31-21(12-16-6-3-2-4-7-16)26(35)30-20(23(33)15-32)13-17-10-11-28-25(17)34/h2-9,14,17,20-21,29,32H,10-13,15H2,1H3,(H,28,34)(H,30,35)(H,31,36)/t17-,20-,21-/m0/s1

>  <Ligand InChI Key>
FTJJLHJSQOEVCN-YYWHXJBOSA-N

>  <BindingDB MonomerID>
423426

>  <Target Name Assigned by Curator or DataSource>
3C-like proteinase (3CL-PRO)

>  <Target Source Organism According to Curator or DataSource>
Human SARS coronavirus

>  <IC50 (nM)>
103

>  <PMID>
WO2005113580A1

>  <Ligand HET ID in PDB>


>  <PDB ID(s) for Ligand-Target Complex>


>  <PubChem CID>


>  <PubChem SID>


>  <ChEMBL ID of Ligand>


>  <DrugBank ID of Ligand>


>  <ZINC ID of Ligand>


>  <PDB ID(s) of Target Chain>
1Q2W,1QZ8,1UJ1,1UK2,1UK3,1UK4,1UW7,1WOF,1Z1I,2A5A,2A5I,2A5K,2ACF,2AHM,2ALV,2AMD,2AMQ,2BX3,2BX4,2C3S,2D2D,2DUC,2FAV,2FE8,2FYG,2G9T,2GA6,2GDT,2GRI,2GT7,2GT8,2GTB,2GX4,2GZ7,2GZ8,2GZ9,2H2Z,2HOB,2HSX,2IDY,2JZF,2K7X,2K87,2KAF,2LIZ,2OP9,2OZK,2RNK,2V6N,2VJ1,2XYQ,2XYR,2XYV,2Z3C,2Z3D,2Z3E,2Z94,2Z9G,2Z9J,2Z9K,2Z9L,2ZU4,2ZU5,3D62,3E91,3E9S,3EA7,3EA8,3EBN,3IWM,3M3V,3MJ5,3R24,3SN8,3SNA,3SNB,3SNC,3SND,3SNE,3SZN,3TIT,3TIU,3TNS,3TNT,3V3M,3VB3,3VB4,3VB5,3VB6,3VB7,4MDS,4MM3,4OVZ,4OW0,5C8S,5C8T,5C8U,5F22,5N19,5N5O,5NFY,5TL6,5TL7,5Y3E,5Y3Q,6JYT,6LNQ,6LNY,6LO0,6NUR,6NUS,6W2A,6W79,6WCO,6XHL,6XHN,6XHO,6XMK,6XOA,7C2K,7JOY

>  <Smiles>
COC(C1=C2)=CC=CC1N=C2C(N[C@@H](Cc1ccccc1)C(N[C@@H](C[C@H](CCN1)C1=O)C(CO)=O)=O)=O

$$$$
423427
Actelion Java MolfileCreator 2.0

  0  0  0  0  0  0              0 V3000
M  V30 BEGIN CTAB
M  V30 COUNTS 33 35 0 0 0
M  V30 BEGIN ATOM
M  V30 1 O 0.0 0.0 0.0 0
M  V30 2 C -1.1253 -0.995 0.0 0
M  V30 3 N -2.6059 -0.6751 0.0 0
M  V30 4 C -0.9831 -2.4756 0.0 0 CFG=1
M  V30 5 C -3.364 -1.9663 0.0 0
M  V30 6 C -2.369 -3.0797 0.0 0
M  V30 7 C 0.3079 -3.21 0.0 0
M  V30 8 C 0.2961 -4.7025 0.0 0 CFG=2
M  V30 9 N 1.5872 -5.4488 0.0 0
M  V30 10 C -1.0186 -5.4488 0.0 0
M  V30 11 C 1.5754 -6.9413 0.0 0
M  V30 12 O -2.3335 -4.6789 0.0 0
M  V30 13 C -1.0305 -6.9413 0.0 0
M  V30 14 O 0.2605 -7.6757 0.0 0
M  V30 15 C 2.8665 -7.6757 0.0 0 CFG=1
M  V30 16 O -2.3453 -7.6757 0.0 0
M  V30 17 N 2.8547 -9.1682 0.0 0
M  V30 18 C 4.1577 -6.9176 0.0 0
M  V30 19 C 4.1458 -9.9026 0.0 0
M  V30 20 C 1.5398 -9.9026 0.0 0
M  V30 21 C 4.1458 -5.4014 0.0 0
M  V30 22 O 5.437 -9.1445 0.0 0
M  V30 23 C 4.134 -11.3951 0.0 0
M  V30 24 C 2.831 -4.6315 0.0 0
M  V30 25 C 5.437 -4.6315 0.0 0
M  V30 26 N 5.3422 -12.2717 0.0 0
M  V30 27 C 2.9021 -12.2717 0.0 0
M  V30 28 C 4.8684 -13.6931 0.0 0
M  V30 29 C 3.3522 -13.6931 0.0 0
M  V30 30 C 5.6028 -14.9843 0.0 0
M  V30 31 C 2.5941 -14.9843 0.0 0
M  V30 32 C 4.8447 -16.2754 0.0 0
M  V30 33 C 3.3285 -16.2754 0.0 0
M  V30 END ATOM
M  V30 BEGIN BOND
M  V30 1 2 1 2
M  V30 2 1 2 3
M  V30 3 1 2 4
M  V30 4 1 3 5
M  V30 5 1 4 6
M  V30 6 1 4 7 CFG=3
M  V30 7 1 7 8
M  V30 8 1 8 9 CFG=3
M  V30 9 1 8 10
M  V30 10 1 9 11
M  V30 11 2 10 12
M  V30 12 1 10 13
M  V30 13 2 11 14
M  V30 14 1 11 15
M  V30 15 1 13 16
M  V30 16 1 15 17 CFG=3
M  V30 17 1 15 18
M  V30 18 1 17 19
M  V30 19 1 17 20
M  V30 20 1 18 21
M  V30 21 2 19 22
M  V30 22 1 19 23
M  V30 23 1 21 24
M  V30 24 1 21 25
M  V30 25 2 23 26
M  V30 26 1 23 27
M  V30 27 1 26 28
M  V30 28 2 27 29
M  V30 29 1 28 30
M  V30 30 1 29 31
M  V30 31 2 30 32
M  V30 32 2 31 33
M  V30 33 1 5 6
M  V30 34 1 28 29
M  V30 35 1 32 33
M  V30 END BOND
M  V30 BEGIN COLLECTION
M  V30 MDLV30/STEABS ATOMS=(3 4 8 15)
M  V30 END COLLECTION
M  V30 END CTAB
M  END
>  <Ligand InChI>
InChI=1S/C24H32N4O5/c1-14(2)10-20(28(3)24(33)19-11-15-6-4-5-7-17(15)26-19)23(32)27-18(21(30)13-29)12-16-8-9-25-22(16)31/h4-7,11,14,16,18,20,26,29H,8-10,12-13H2,1-3H3,(H,25,31)(H,27,32)/t16-,18-,20-/m0/s1

>  <Ligand InChI Key>
SIIMTOCANPWKDE-QRFRQXIXSA-N

>  <BindingDB MonomerID>
423427

>  <Target Name Assigned by Curator or DataSource>
3C-like proteinase (3CL-PRO)

>  <Target Source Organism According to Curator or DataSource>
Human SARS coronavirus

>  <IC50 (nM)>
152

>  <PMID>
WO2005113580A1

>  <Ligand HET ID in PDB>


>  <PDB ID(s) for Ligand-Target Complex>


>  <PubChem CID>


>  <PubChem SID>


>  <ChEMBL ID of Ligand>


>  <DrugBank ID of Ligand>


>  <ZINC ID of Ligand>


>  <PDB ID(s) of Target Chain>
1Q2W,1QZ8,1UJ1,1UK2,1UK3,1UK4,1UW7,1WOF,1Z1I,2A5A,2A5I,2A5K,2ACF,2AHM,2ALV,2AMD,2AMQ,2BX3,2BX4,2C3S,2D2D,2DUC,2FAV,2FE8,2FYG,2G9T,2GA6,2GDT,2GRI,2GT7,2GT8,2GTB,2GX4,2GZ7,2GZ8,2GZ9,2H2Z,2HOB,2HSX,2IDY,2JZF,2K7X,2K87,2KAF,2LIZ,2OP9,2OZK,2RNK,2V6N,2VJ1,2XYQ,2XYR,2XYV,2Z3C,2Z3D,2Z3E,2Z94,2Z9G,2Z9J,2Z9K,2Z9L,2ZU4,2ZU5,3D62,3E91,3E9S,3EA7,3EA8,3EBN,3IWM,3M3V,3MJ5,3R24,3SN8,3SNA,3SNB,3SNC,3SND,3SNE,3SZN,3TIT,3TIU,3TNS,3TNT,3V3M,3VB3,3VB4,3VB5,3VB6,3VB7,4MDS,4MM3,4OVZ,4OW0,5C8S,5C8T,5C8U,5F22,5N19,5N5O,5NFY,5TL6,5TL7,5Y3E,5Y3Q,6JYT,6LNQ,6LNY,6LO0,6NUR,6NUS,6W2A,6W79,6WCO,6XHL,6XHN,6XHO,6XMK,6XOA,7C2K,7JOY

>  <Smiles>
CC(C)C[C@@H](C(N[C@@H](C[C@H](CCN1)C1=O)C(CO)=O)=O)N(C)C(C1=NC(C=CC=C2)C2=C1)=O

$$$$
423428
Actelion Java MolfileCreator 2.0

  0  0  0  0  0  0              0 V3000
M  V30 BEGIN CTAB
M  V30 COUNTS 44 48 0 0 0
M  V30 BEGIN ATOM
M  V30 1 O 0.0 0.0 0.0 0
M  V30 2 C 1.0993 -0.9929 0.0 0
M  V30 3 N 2.5532 -0.6737 0.0 0
M  V30 4 C 0.9338 -2.4705 0.0 0 CFG=1
M  V30 5 C 3.2979 -1.9622 0.0 0
M  V30 6 C 2.2932 -3.0733 0.0 0
M  V30 7 C -0.3782 -3.2152 0.0 0
M  V30 8 C -0.39 -4.7046 0.0 0 CFG=2
M  V30 9 N -1.7021 -5.4493 0.0 0
M  V30 10 C 0.8983 -5.4493 0.0 0
M  V30 11 C -3.0142 -4.6809 0.0 0
M  V30 12 O 0.8865 -6.9387 0.0 0
M  V30 13 C 2.1868 -4.6809 0.0 0
M  V30 14 O -3.026 -3.1679 0.0 0
M  V30 15 C -4.3263 -5.4256 0.0 0 CFG=1
M  V30 16 O 3.4752 -5.4256 0.0 0
M  V30 17 N -5.6384 -4.6573 0.0 0
M  V30 18 C -4.3381 -6.915 0.0 0
M  V30 19 C 4.7637 -4.6573 0.0 0
M  V30 20 C -6.9505 -5.402 0.0 0
M  V30 21 C -3.0497 -7.6597 0.0 0
M  V30 22 C 6.0521 -5.402 0.0 0
M  V30 23 O -6.9623 -6.8914 0.0 0
M  V30 24 C -8.2626 -4.6336 0.0 0
M  V30 25 C -1.7612 -6.8914 0.0 0
M  V30 26 C -3.0615 -9.1491 0.0 0
M  V30 27 C 7.3406 -4.6336 0.0 0
M  V30 28 C 6.0403 -6.8914 0.0 0
M  V30 29 N -9.6456 -5.2365 0.0 0
M  V30 30 C -8.4281 -3.1324 0.0 0
M  V30 31 C -0.4728 -7.6361 0.0 0
M  V30 32 C -1.773 -9.8938 0.0 0
M  V30 33 C 8.629 -5.3783 0.0 0
M  V30 34 C 7.3288 -7.6361 0.0 0
M  V30 35 C -10.6622 -4.1135 0.0 0
M  V30 36 C -9.9057 -2.8133 0.0 0
M  V30 37 C -0.4846 -9.1255 0.0 0
M  V30 38 C 8.6172 -6.8677 0.0 0
M  V30 39 C -12.1752 -4.1017 0.0 0
M  V30 40 C -10.674 -1.5012 0.0 0
M  V30 41 C -12.9317 -2.7896 0.0 0
M  V30 42 O -9.9293 -0.1891 0.0 0
M  V30 43 C -12.187 -1.4894 0.0 0
M  V30 44 C -10.6976 1.1229 0.0 0
M  V30 END ATOM
M  V30 BEGIN BOND
M  V30 1 2 1 2
M  V30 2 1 2 3
M  V30 3 1 2 4
M  V30 4 1 3 5
M  V30 5 1 4 6
M  V30 6 1 4 7 CFG=1
M  V30 7 1 7 8
M  V30 8 1 8 9 CFG=1
M  V30 9 1 8 10
M  V30 10 1 9 11
M  V30 11 2 10 12
M  V30 12 1 10 13
M  V30 13 2 11 14
M  V30 14 1 11 15
M  V30 15 1 13 16
M  V30 16 1 15 17 CFG=3
M  V30 17 1 15 18
M  V30 18 1 16 19
M  V30 19 1 17 20
M  V30 20 1 18 21
M  V30 21 1 19 22
M  V30 22 2 20 23
M  V30 23 1 20 24
M  V30 24 1 21 25
M  V30 25 1 21 26
M  V30 26 2 22 27
M  V30 27 1 22 28
M  V30 28 2 24 29
M  V30 29 1 24 30
M  V30 30 1 25 31
M  V30 31 1 26 32
M  V30 32 1 27 33
M  V30 33 2 28 34
M  V30 34 1 29 35
M  V30 35 2 30 36
M  V30 36 1 31 37
M  V30 37 2 33 38
M  V30 38 1 35 39
M  V30 39 1 36 40
M  V30 40 2 39 41
M  V30 41 1 40 42
M  V30 42 2 40 43
M  V30 43 1 42 44
M  V30 44 1 5 6
M  V30 45 1 32 37
M  V30 46 1 34 38
M  V30 47 1 35 36
M  V30 48 1 41 43
M  V30 END BOND
M  V30 BEGIN COLLECTION
M  V30 MDLV30/STEABS ATOMS=(3 4 8 15)
M  V30 END COLLECTION
M  V30 END CTAB
M  END
>  <Ligand InChI>
InChI=1S/C34H42N4O6/c1-43-31-14-8-13-26-25(31)19-29(36-26)34(42)38-28(17-22-9-4-2-5-10-22)33(41)37-27(18-24-15-16-35-32(24)40)30(39)21-44-20-23-11-6-3-7-12-23/h3,6-8,11-14,19,22,24,27-28,36H,2,4-5,9-10,15-18,20-21H2,1H3,(H,35,40)(H,37,41)(H,38,42)/t24-,27-,28-/m0/s1

>  <Ligand InChI Key>
XXYBEOYTBGBIIC-WIRXVTQYSA-N

>  <BindingDB MonomerID>
423428

>  <Target Name Assigned by Curator or DataSource>
3C-like proteinase (3CL-PRO)

>  <Target Source Organism According to Curator or DataSource>
Human SARS coronavirus

>  <IC50 (nM)>
133

>  <PMID>
WO2005113580A1

>  <Ligand HET ID in PDB>


>  <PDB ID(s) for Ligand-Target Complex>


>  <PubChem CID>


>  <PubChem SID>


>  <ChEMBL ID of Ligand>


>  <DrugBank ID of Ligand>


>  <ZINC ID of Ligand>


>  <PDB ID(s) of Target Chain>
1Q2W,1QZ8,1UJ1,1UK2,1UK3,1UK4,1UW7,1WOF,1Z1I,2A5A,2A5I,2A5K,2ACF,2AHM,2ALV,2AMD,2AMQ,2BX3,2BX4,2C3S,2D2D,2DUC,2FAV,2FE8,2FYG,2G9T,2GA6,2GDT,2GRI,2GT7,2GT8,2GTB,2GX4,2GZ7,2GZ8,2GZ9,2H2Z,2HOB,2HSX,2IDY,2JZF,2K7X,2K87,2KAF,2LIZ,2OP9,2OZK,2RNK,2V6N,2VJ1,2XYQ,2XYR,2XYV,2Z3C,2Z3D,2Z3E,2Z94,2Z9G,2Z9J,2Z9K,2Z9L,2ZU4,2ZU5,3D62,3E91,3E9S,3EA7,3EA8,3EBN,3IWM,3M3V,3MJ5,3R24,3SN8,3SNA,3SNB,3SNC,3SND,3SNE,3SZN,3TIT,3TIU,3TNS,3TNT,3V3M,3VB3,3VB4,3VB5,3VB6,3VB7,4MDS,4MM3,4OVZ,4OW0,5C8S,5C8T,5C8U,5F22,5N19,5N5O,5NFY,5TL6,5TL7,5Y3E,5Y3Q,6JYT,6LNQ,6LNY,6LO0,6NUR,6NUS,6W2A,6W79,6WCO,6XHL,6XHN,6XHO,6XMK,6XOA,7C2K,7JOY

>  <Smiles>
COC(C1=C2)=CC=CC1N=C2C(N[C@@H](CC1CCCCC1)C(N[C@@H](C[C@H](CCN1)C1=O)C(COCc1ccccc1)=O)=O)=O

$$$$
423429
Actelion Java MolfileCreator 2.0

  0  0  0  0  0  0              0 V3000
M  V30 BEGIN CTAB
M  V30 COUNTS 37 40 0 0 0
M  V30 BEGIN ATOM
M  V30 1 O 0.0 0.0 0.0 0
M  V30 2 C 0.1768 -1.4737 0.0 0
M  V30 3 N 1.4855 -2.1929 0.0 0
M  V30 4 C -0.9314 -2.4877 0.0 0 CFG=1
M  V30 5 C 1.1908 -3.6549 0.0 0
M  V30 6 C -0.3065 -3.8318 0.0 0
M  V30 7 C -2.4169 -2.1929 0.0 0
M  V30 8 C -3.4073 -3.313 0.0 0 CFG=2
M  V30 9 N -4.8929 -3.0182 0.0 0
M  V30 10 C -2.9239 -4.716 0.0 0
M  V30 11 C -5.8833 -4.1383 0.0 0
M  V30 12 O -3.9143 -5.8361 0.0 0
M  V30 13 C -1.4619 -4.9872 0.0 0
M  V30 14 O -5.3999 -5.5413 0.0 0
M  V30 15 C -7.3688 -3.8435 0.0 0 CFG=1
M  V30 16 O -0.9785 -6.3902 0.0 0
M  V30 17 N -8.3592 -4.9636 0.0 0
M  V30 18 C -7.8758 -2.4169 0.0 0
M  V30 19 C -9.8448 -4.6689 0.0 0
M  V30 20 C -6.909 -1.2733 0.0 0
M  V30 21 O -10.3517 -3.2423 0.0 0
M  V30 22 C -10.8351 -5.7889 0.0 0
M  V30 23 C -7.416 0.1532 0.0 0
M  V30 24 C -5.447 -1.5445 0.0 0
M  V30 25 N -10.505 -7.2391 0.0 0
M  V30 26 C -12.3443 -5.6474 0.0 0
M  V30 27 C -6.4492 1.2969 0.0 0
M  V30 28 C -4.4802 -0.4008 0.0 0
M  V30 29 C -11.8019 -8.0055 0.0 0
M  V30 30 C -12.9456 -7.0151 0.0 0
M  V30 31 C -4.9872 1.0257 0.0 0
M  V30 32 C -12.0967 -9.4675 0.0 0
M  V30 33 C -14.3722 -7.4985 0.0 0
M  V30 34 C -13.5233 -9.9509 0.0 0
M  V30 35 O -15.5158 -6.5081 0.0 0
M  V30 36 C -14.6669 -8.9605 0.0 0
M  V30 37 C -16.9424 -6.9915 0.0 0
M  V30 END ATOM
M  V30 BEGIN BOND
M  V30 1 2 1 2
M  V30 2 1 2 3
M  V30 3 1 2 4
M  V30 4 1 3 5
M  V30 5 1 4 6
M  V30 6 1 4 7 CFG=1
M  V30 7 1 7 8
M  V30 8 1 8 9 CFG=1
M  V30 9 1 8 10
M  V30 10 1 9 11
M  V30 11 2 10 12
M  V30 12 1 10 13
M  V30 13 2 11 14
M  V30 14 1 11 15
M  V30 15 1 13 16
M  V30 16 1 15 17 CFG=1
M  V30 17 1 15 18
M  V30 18 1 17 19
M  V30 19 1 18 20
M  V30 20 2 19 21
M  V30 21 1 19 22
M  V30 22 1 20 23
M  V30 23 1 20 24
M  V30 24 2 22 25
M  V30 25 1 22 26
M  V30 26 1 23 27
M  V30 27 1 24 28
M  V30 28 1 25 29
M  V30 29 2 26 30
M  V30 30 1 27 31
M  V30 31 1 29 32
M  V30 32 1 30 33
M  V30 33 2 32 34
M  V30 34 1 33 35
M  V30 35 2 33 36
M  V30 36 1 35 37
M  V30 37 1 5 6
M  V30 38 1 28 31
M  V30 39 1 29 30
M  V30 40 1 34 36
M  V30 END BOND
M  V30 BEGIN COLLECTION
M  V30 MDLV30/STEABS ATOMS=(3 4 8 15)
M  V30 END COLLECTION
M  V30 END CTAB
M  END
>  <Ligand InChI>
InChI=1S/C27H36N4O6/c1-37-24-9-5-8-19-18(24)14-22(29-19)27(36)31-21(12-16-6-3-2-4-7-16)26(35)30-20(23(33)15-32)13-17-10-11-28-25(17)34/h5,8-9,14,16-17,20-21,29,32H,2-4,6-7,10-13,15H2,1H3,(H,28,34)(H,30,35)(H,31,36)/t17-,20-,21-/m0/s1

>  <Ligand InChI Key>
LZRKKUAWIAVFRJ-YYWHXJBOSA-N

>  <BindingDB MonomerID>
423429

>  <Target Name Assigned by Curator or DataSource>
3C-like proteinase (3CL-PRO)

>  <Target Source Organism According to Curator or DataSource>
Human SARS coronavirus

>  <IC50 (nM)>
25

>  <PMID>
WO2005113580A1

>  <Ligand HET ID in PDB>


>  <PDB ID(s) for Ligand-Target Complex>


>  <PubChem CID>


>  <PubChem SID>


>  <ChEMBL ID of Ligand>


>  <DrugBank ID of Ligand>


>  <ZINC ID of Ligand>


>  <PDB ID(s) of Target Chain>
1Q2W,1QZ8,1UJ1,1UK2,1UK3,1UK4,1UW7,1WOF,1Z1I,2A5A,2A5I,2A5K,2ACF,2AHM,2ALV,2AMD,2AMQ,2BX3,2BX4,2C3S,2D2D,2DUC,2FAV,2FE8,2FYG,2G9T,2GA6,2GDT,2GRI,2GT7,2GT8,2GTB,2GX4,2GZ7,2GZ8,2GZ9,2H2Z,2HOB,2HSX,2IDY,2JZF,2K7X,2K87,2KAF,2LIZ,2OP9,2OZK,2RNK,2V6N,2VJ1,2XYQ,2XYR,2XYV,2Z3C,2Z3D,2Z3E,2Z94,2Z9G,2Z9J,2Z9K,2Z9L,2ZU4,2ZU5,3D62,3E91,3E9S,3EA7,3EA8,3EBN,3IWM,3M3V,3MJ5,3R24,3SN8,3SNA,3SNB,3SNC,3SND,3SNE,3SZN,3TIT,3TIU,3TNS,3TNT,3V3M,3VB3,3VB4,3VB5,3VB6,3VB7,4MDS,4MM3,4OVZ,4OW0,5C8S,5C8T,5C8U,5F22,5N19,5N5O,5NFY,5TL6,5TL7,5Y3E,5Y3Q,6JYT,6LNQ,6LNY,6LO0,6NUR,6NUS,6W2A,6W79,6WCO,6XHL,6XHN,6XHO,6XMK,6XOA,7C2K,7JOY

>  <Smiles>
COC(C1=C2)=CC=CC1N=C2C(N[C@@H](CC1CCCCC1)C(N[C@@H](C[C@H](CCN1)C1=O)C(CO)=O)=O)=O

$$$$
423430
Actelion Java MolfileCreator 2.0

  0  0  0  0  0  0              0 V3000
M  V30 BEGIN CTAB
M  V30 COUNTS 42 45 0 0 0
M  V30 BEGIN ATOM
M  V30 1 O 0.0 0.0 0.0 0
M  V30 2 C -0.7424 1.3316 0.0 0
M  V30 3 N -2.239 1.5319 0.0 0
M  V30 4 C -0.1178 2.6986 0.0 0 CFG=1
M  V30 5 C -2.5336 3.0167 0.0 0
M  V30 6 C -1.2255 3.7356 0.0 0
M  V30 7 C 1.3434 2.9932 0.0 0
M  V30 8 C 1.8265 4.4191 0.0 0 CFG=2
M  V30 9 N 3.2878 4.7137 0.0 0
M  V30 10 C 0.8366 5.5622 0.0 0
M  V30 11 C 4.2541 3.5942 0.0 0
M  V30 12 O 1.3198 6.9881 0.0 0
M  V30 13 C -0.6481 5.2911 0.0 0
M  V30 14 O 3.7474 2.1918 0.0 0
M  V30 15 C 5.7154 3.8888 0.0 0 CFG=1
M  V30 16 O -1.638 6.4342 0.0 0
M  V30 17 N 6.6817 2.7693 0.0 0
M  V30 18 C 6.1985 5.3147 0.0 0
M  V30 19 C -3.1228 6.1632 0.0 0
M  V30 20 C 8.1429 3.0639 0.0 0
M  V30 21 C 6.175 1.3669 0.0 0
M  V30 22 C 5.2086 6.4578 0.0 0
M  V30 23 C -4.1127 7.3063 0.0 0
M  V30 24 O 8.6261 4.4898 0.0 0
M  V30 25 C 9.1093 1.9444 0.0 0
M  V30 26 C 3.7238 6.1867 0.0 0
M  V30 27 C 5.6918 7.8837 0.0 0
M  V30 28 C -5.5975 7.0352 0.0 0
M  V30 29 C -3.6295 8.7322 0.0 0
M  V30 30 N 10.5941 2.0858 0.0 0
M  V30 31 C 8.7557 0.4949 0.0 0
M  V30 32 C -6.5874 8.1783 0.0 0
M  V30 33 C -4.6194 9.8752 0.0 0
M  V30 34 C 11.1715 0.7188 0.0 0
M  V30 35 C 10.0284 -0.271 0.0 0
M  V30 36 C -6.1042 9.6042 0.0 0
M  V30 37 C 12.5739 0.2356 0.0 0
M  V30 38 C 10.2995 -1.7323 0.0 0
M  V30 39 C 12.8449 -1.2255 0.0 0
M  V30 40 O 9.1564 -2.6986 0.0 0
M  V30 41 C 11.7018 -2.2154 0.0 0
M  V30 42 C 9.4274 -4.1598 0.0 0
M  V30 END ATOM
M  V30 BEGIN BOND
M  V30 1 2 1 2
M  V30 2 1 2 3
M  V30 3 1 2 4
M  V30 4 1 3 5
M  V30 5 1 4 6
M  V30 6 1 4 7 CFG=1
M  V30 7 1 7 8
M  V30 8 1 8 9 CFG=1
M  V30 9 1 8 10
M  V30 10 1 9 11
M  V30 11 2 10 12
M  V30 12 1 10 13
M  V30 13 2 11 14
M  V30 14 1 11 15
M  V30 15 1 13 16
M  V30 16 1 15 17 CFG=3
M  V30 17 1 15 18
M  V30 18 1 16 19
M  V30 19 1 17 20
M  V30 20 1 17 21
M  V30 21 1 18 22
M  V30 22 1 19 23
M  V30 23 2 20 24
M  V30 24 1 20 25
M  V30 25 1 22 26
M  V30 26 1 22 27
M  V30 27 2 23 28
M  V30 28 1 23 29
M  V30 29 2 25 30
M  V30 30 1 25 31
M  V30 31 1 28 32
M  V30 32 2 29 33
M  V30 33 1 30 34
M  V30 34 2 31 35
M  V30 35 2 32 36
M  V30 36 1 34 37
M  V30 37 1 35 38
M  V30 38 2 37 39
M  V30 39 1 38 40
M  V30 40 2 38 41
M  V30 41 1 40 42
M  V30 42 1 5 6
M  V30 43 1 33 36
M  V30 44 1 34 35
M  V30 45 1 39 41
M  V30 END BOND
M  V30 BEGIN COLLECTION
M  V30 MDLV30/STEABS ATOMS=(3 4 8 15)
M  V30 END COLLECTION
M  V30 END CTAB
M  END
>  <Ligand InChI>
InChI=1S/C32H40N4O6/c1-20(2)15-27(36(3)32(40)26-17-23-24(34-26)11-8-12-29(23)41-4)31(39)35-25(16-22-13-14-33-30(22)38)28(37)19-42-18-21-9-6-5-7-10-21/h5-12,17,20,22,25,27,34H,13-16,18-19H2,1-4H3,(H,33,38)(H,35,39)/t22-,25-,27-/m0/s1

>  <Ligand InChI Key>
KPARVBIJDYMZRF-LNBJVWSJSA-N

>  <BindingDB MonomerID>
423430

>  <Target Name Assigned by Curator or DataSource>
3C-like proteinase (3CL-PRO)

>  <Target Source Organism According to Curator or DataSource>
Human SARS coronavirus

>  <IC50 (nM)>
927

>  <PMID>
WO2005113580A1

>  <Ligand HET ID in PDB>


>  <PDB ID(s) for Ligand-Target Complex>


>  <PubChem CID>


>  <PubChem SID>


>  <ChEMBL ID of Ligand>


>  <DrugBank ID of Ligand>


>  <ZINC ID of Ligand>


>  <PDB ID(s) of Target Chain>
1Q2W,1QZ8,1UJ1,1UK2,1UK3,1UK4,1UW7,1WOF,1Z1I,2A5A,2A5I,2A5K,2ACF,2AHM,2ALV,2AMD,2AMQ,2BX3,2BX4,2C3S,2D2D,2DUC,2FAV,2FE8,2FYG,2G9T,2GA6,2GDT,2GRI,2GT7,2GT8,2GTB,2GX4,2GZ7,2GZ8,2GZ9,2H2Z,2HOB,2HSX,2IDY,2JZF,2K7X,2K87,2KAF,2LIZ,2OP9,2OZK,2RNK,2V6N,2VJ1,2XYQ,2XYR,2XYV,2Z3C,2Z3D,2Z3E,2Z94,2Z9G,2Z9J,2Z9K,2Z9L,2ZU4,2ZU5,3D62,3E91,3E9S,3EA7,3EA8,3EBN,3IWM,3M3V,3MJ5,3R24,3SN8,3SNA,3SNB,3SNC,3SND,3SNE,3SZN,3TIT,3TIU,3TNS,3TNT,3V3M,3VB3,3VB4,3VB5,3VB6,3VB7,4MDS,4MM3,4OVZ,4OW0,5C8S,5C8T,5C8U,5F22,5N19,5N5O,5NFY,5TL6,5TL7,5Y3E,5Y3Q,6JYT,6LNQ,6LNY,6LO0,6NUR,6NUS,6W2A,6W79,6WCO,6XHL,6XHN,6XHO,6XMK,6XOA,7C2K,7JOY

>  <Smiles>
CC(C)C[C@@H](C(N[C@@H](C[C@H](CCN1)C1=O)C(COCc1ccccc1)=O)=O)N(C)C(C1=NC(C=CC=C2OC)C2=C1)=O

$$$$
423431
Actelion Java MolfileCreator 2.0

  0  0  0  0  0  0              0 V3000
M  V30 BEGIN CTAB
M  V30 COUNTS 35 37 0 0 0
M  V30 BEGIN ATOM
M  V30 1 O 0.0 0.0 0.0 0
M  V30 2 C 0.2954 1.4771 0.0 0
M  V30 3 N -0.7208 2.5997 0.0 0
M  V30 4 C 1.6544 2.1034 0.0 0 CFG=1
M  V30 5 C 0.0236 3.9115 0.0 0
M  V30 6 C 1.4889 3.6042 0.0 0
M  V30 7 C 2.9424 1.3589 0.0 0
M  V30 8 C 4.2305 2.1152 0.0 0 CFG=2
M  V30 9 N 5.5186 1.3708 0.0 0
M  V30 10 C 4.2187 3.6278 0.0 0
M  V30 11 C 6.8067 2.1271 0.0 0
M  V30 12 O 5.5068 4.3841 0.0 0
M  V30 13 C 2.907 4.3841 0.0 0
M  V30 14 O 6.7949 3.6397 0.0 0
M  V30 15 C 8.0948 1.3826 0.0 0 CFG=1
M  V30 16 O 2.8952 5.8968 0.0 0
M  V30 17 N 8.0829 -0.1063 0.0 0
M  V30 18 C 9.3828 2.1389 0.0 0
M  V30 19 C 6.7712 -0.839 0.0 0
M  V30 20 C 9.371 -0.839 0.0 0
M  V30 21 C 9.371 3.6515 0.0 0
M  V30 22 O 5.4595 -0.0827 0.0 0
M  V30 23 C 6.7594 -2.3279 0.0 0
M  V30 24 C 8.0593 4.4078 0.0 0
M  V30 25 C 10.6591 4.4078 0.0 0
M  V30 26 N 7.9648 -3.2024 0.0 0
M  V30 27 C 5.5304 -3.2024 0.0 0
M  V30 28 C 7.4921 -4.6205 0.0 0
M  V30 29 C 5.9795 -4.6205 0.0 0
M  V30 30 C 8.2366 -5.9086 0.0 0
M  V30 31 C 5.2232 -5.9086 0.0 0
M  V30 32 C 7.4685 -7.1967 0.0 0
M  V30 33 O 3.7106 -5.8968 0.0 0
M  V30 34 C 5.9558 -7.1967 0.0 0
M  V30 35 C 2.9424 -7.1848 0.0 0
M  V30 END ATOM
M  V30 BEGIN BOND
M  V30 1 2 1 2
M  V30 2 1 2 3
M  V30 3 1 2 4
M  V30 4 1 3 5
M  V30 5 1 4 6
M  V30 6 1 4 7 CFG=1
M  V30 7 1 7 8
M  V30 8 1 8 9 CFG=1
M  V30 9 1 8 10
M  V30 10 1 9 11
M  V30 11 2 10 12
M  V30 12 1 10 13
M  V30 13 2 11 14
M  V30 14 1 11 15
M  V30 15 1 13 16
M  V30 16 1 15 17 CFG=3
M  V30 17 1 15 18
M  V30 18 1 17 19
M  V30 19 1 17 20
M  V30 20 1 18 21
M  V30 21 2 19 22
M  V30 22 1 19 23
M  V30 23 1 21 24
M  V30 24 1 21 25
M  V30 25 2 23 26
M  V30 26 1 23 27
M  V30 27 1 26 28
M  V30 28 2 27 29
M  V30 29 1 28 30
M  V30 30 1 29 31
M  V30 31 2 30 32
M  V30 32 1 31 33
M  V30 33 2 31 34
M  V30 34 1 33 35
M  V30 35 1 5 6
M  V30 36 1 28 29
M  V30 37 1 32 34
M  V30 END BOND
M  V30 BEGIN COLLECTION
M  V30 MDLV30/STEABS ATOMS=(3 4 8 15)
M  V30 END COLLECTION
M  V30 END CTAB
M  END
>  <Ligand InChI>
InChI=1S/C25H34N4O6/c1-14(2)10-20(24(33)28-18(21(31)13-30)11-15-8-9-26-23(15)32)29(3)25(34)19-12-16-17(27-19)6-5-7-22(16)35-4/h5-7,12,14-15,18,20,27,30H,8-11,13H2,1-4H3,(H,26,32)(H,28,33)/t15-,18-,20-/m0/s1

>  <Ligand InChI Key>
QZZQSANQZVXOQZ-QSFXBCCZSA-N

>  <BindingDB MonomerID>
423431

>  <Target Name Assigned by Curator or DataSource>
3C-like proteinase (3CL-PRO)

>  <Target Source Organism According to Curator or DataSource>
Human SARS coronavirus

>  <IC50 (nM)>
105

>  <PMID>
WO2005113580A1

>  <Ligand HET ID in PDB>


>  <PDB ID(s) for Ligand-Target Complex>


>  <PubChem CID>


>  <PubChem SID>


>  <ChEMBL ID of Ligand>


>  <DrugBank ID of Ligand>


>  <ZINC ID of Ligand>


>  <PDB ID(s) of Target Chain>
1Q2W,1QZ8,1UJ1,1UK2,1UK3,1UK4,1UW7,1WOF,1Z1I,2A5A,2A5I,2A5K,2ACF,2AHM,2ALV,2AMD,2AMQ,2BX3,2BX4,2C3S,2D2D,2DUC,2FAV,2FE8,2FYG,2G9T,2GA6,2GDT,2GRI,2GT7,2GT8,2GTB,2GX4,2GZ7,2GZ8,2GZ9,2H2Z,2HOB,2HSX,2IDY,2JZF,2K7X,2K87,2KAF,2LIZ,2OP9,2OZK,2RNK,2V6N,2VJ1,2XYQ,2XYR,2XYV,2Z3C,2Z3D,2Z3E,2Z94,2Z9G,2Z9J,2Z9K,2Z9L,2ZU4,2ZU5,3D62,3E91,3E9S,3EA7,3EA8,3EBN,3IWM,3M3V,3MJ5,3R24,3SN8,3SNA,3SNB,3SNC,3SND,3SNE,3SZN,3TIT,3TIU,3TNS,3TNT,3V3M,3VB3,3VB4,3VB5,3VB6,3VB7,4MDS,4MM3,4OVZ,4OW0,5C8S,5C8T,5C8U,5F22,5N19,5N5O,5NFY,5TL6,5TL7,5Y3E,5Y3Q,6JYT,6LNQ,6LNY,6LO0,6NUR,6NUS,6W2A,6W79,6WCO,6XHL,6XHN,6XHO,6XMK,6XOA,7C2K,7JOY

>  <Smiles>
CC(C)C[C@@H](C(N[C@@H](C[C@H](CCN1)C1=O)C(CO)=O)=O)N(C)C(C1=NC(C=CC=C2OC)C2=C1)=O

$$$$
423432
Actelion Java MolfileCreator 2.0

  0  0  0  0  0  0              0 V3000
M  V30 BEGIN CTAB
M  V30 COUNTS 42 45 0 0 0
M  V30 BEGIN ATOM
M  V30 1 O 0.0 0.0 0.0 0
M  V30 2 C 1.1 -0.9935 0.0 0
M  V30 3 N 2.5549 -0.6742 0.0 0
M  V30 4 C 0.9344 -2.4721 0.0 0 CFG=1
M  V30 5 C 3.2882 -1.9634 0.0 0
M  V30 6 C 2.2946 -3.0753 0.0 0
M  V30 7 C -0.3785 -3.2054 0.0 0
M  V30 8 C -0.3903 -4.6958 0.0 0 CFG=2
M  V30 9 N -1.7032 -5.4409 0.0 0
M  V30 10 C 0.8989 -5.4409 0.0 0
M  V30 11 C -3.0162 -4.6839 0.0 0
M  V30 12 O 0.8871 -6.9313 0.0 0
M  V30 13 C 2.1882 -4.6839 0.0 0
M  V30 14 O -3.028 -3.1699 0.0 0
M  V30 15 C -4.3291 -5.4291 0.0 0 CFG=1
M  V30 16 O 3.4775 -5.4291 0.0 0
M  V30 17 N -5.642 -4.6721 0.0 0
M  V30 18 C -4.3409 -6.9195 0.0 0
M  V30 19 C 4.7667 -4.6721 0.0 0
M  V30 20 C -6.955 -5.4173 0.0 0
M  V30 21 C -3.0516 -7.6528 0.0 0
M  V30 22 C 6.056 -5.4173 0.0 0
M  V30 23 O -6.9668 -6.9076 0.0 0
M  V30 24 C -8.2679 -4.6603 0.0 0
M  V30 25 C -3.8205 -8.9421 0.0 0
M  V30 26 C -2.3183 -6.3399 0.0 0
M  V30 27 C -1.7624 -8.398 0.0 0
M  V30 28 C 7.3453 -4.6603 0.0 0
M  V30 29 C 6.0442 -6.9076 0.0 0
M  V30 30 N -9.6518 -5.2635 0.0 0
M  V30 31 C -8.4335 -3.1581 0.0 0
M  V30 32 C 8.6346 -5.4055 0.0 0
M  V30 33 C 7.3335 -7.641 0.0 0
M  V30 34 C -10.669 -4.1398 0.0 0
M  V30 35 C -9.912 -2.8387 0.0 0
M  V30 36 C 8.6227 -6.8958 0.0 0
M  V30 37 C -12.183 -4.128 0.0 0
M  V30 38 C -10.669 -1.5258 0.0 0
M  V30 39 C -12.9519 -2.8151 0.0 0
M  V30 40 O -9.9357 -0.2129 0.0 0
M  V30 41 C -12.183 -1.514 0.0 0
M  V30 42 C -10.6927 1.1 0.0 0
M  V30 END ATOM
M  V30 BEGIN BOND
M  V30 1 2 1 2
M  V30 2 1 2 3
M  V30 3 1 2 4
M  V30 4 1 3 5
M  V30 5 1 4 6
M  V30 6 1 4 7 CFG=1
M  V30 7 1 7 8
M  V30 8 1 8 9 CFG=1
M  V30 9 1 8 10
M  V30 10 1 9 11
M  V30 11 2 10 12
M  V30 12 1 10 13
M  V30 13 2 11 14
M  V30 14 1 11 15
M  V30 15 1 13 16
M  V30 16 1 15 17 CFG=3
M  V30 17 1 15 18
M  V30 18 1 16 19
M  V30 19 1 17 20
M  V30 20 1 18 21
M  V30 21 1 19 22
M  V30 22 2 20 23
M  V30 23 1 20 24
M  V30 24 1 21 25
M  V30 25 1 21 26
M  V30 26 1 21 27
M  V30 27 2 22 28
M  V30 28 1 22 29
M  V30 29 2 24 30
M  V30 30 1 24 31
M  V30 31 1 28 32
M  V30 32 2 29 33
M  V30 33 1 30 34
M  V30 34 2 31 35
M  V30 35 2 32 36
M  V30 36 1 34 37
M  V30 37 1 35 38
M  V30 38 2 37 39
M  V30 39 1 38 40
M  V30 40 2 38 41
M  V30 41 1 40 42
M  V30 42 1 5 6
M  V30 43 1 33 36
M  V30 44 1 34 35
M  V30 45 1 39 41
M  V30 END BOND
M  V30 BEGIN COLLECTION
M  V30 MDLV30/STEABS ATOMS=(3 4 8 15)
M  V30 END COLLECTION
M  V30 END CTAB
M  END
>  <Ligand InChI>
InChI=1S/C32H40N4O6/c1-32(2,3)17-26(36-30(39)25-16-22-23(34-25)11-8-12-28(22)41-4)31(40)35-24(15-21-13-14-33-29(21)38)27(37)19-42-18-20-9-6-5-7-10-20/h5-12,16,21,24,26,34H,13-15,17-19H2,1-4H3,(H,33,38)(H,35,40)(H,36,39)/t21-,24-,26-/m0/s1

>  <Ligand InChI Key>
RDJBJGGQKYGFCU-CVJWPJSTSA-N

>  <BindingDB MonomerID>
423432

>  <Target Name Assigned by Curator or DataSource>
3C-like proteinase (3CL-PRO)

>  <Target Source Organism According to Curator or DataSource>
Human SARS coronavirus

>  <IC50 (nM)>
32

>  <PMID>
WO2005113580A1

>  <Ligand HET ID in PDB>


>  <PDB ID(s) for Ligand-Target Complex>


>  <PubChem CID>


>  <PubChem SID>


>  <ChEMBL ID of Ligand>


>  <DrugBank ID of Ligand>


>  <ZINC ID of Ligand>


>  <PDB ID(s) of Target Chain>
1Q2W,1QZ8,1UJ1,1UK2,1UK3,1UK4,1UW7,1WOF,1Z1I,2A5A,2A5I,2A5K,2ACF,2AHM,2ALV,2AMD,2AMQ,2BX3,2BX4,2C3S,2D2D,2DUC,2FAV,2FE8,2FYG,2G9T,2GA6,2GDT,2GRI,2GT7,2GT8,2GTB,2GX4,2GZ7,2GZ8,2GZ9,2H2Z,2HOB,2HSX,2IDY,2JZF,2K7X,2K87,2KAF,2LIZ,2OP9,2OZK,2RNK,2V6N,2VJ1,2XYQ,2XYR,2XYV,2Z3C,2Z3D,2Z3E,2Z94,2Z9G,2Z9J,2Z9K,2Z9L,2ZU4,2ZU5,3D62,3E91,3E9S,3EA7,3EA8,3EBN,3IWM,3M3V,3MJ5,3R24,3SN8,3SNA,3SNB,3SNC,3SND,3SNE,3SZN,3TIT,3TIU,3TNS,3TNT,3V3M,3VB3,3VB4,3VB5,3VB6,3VB7,4MDS,4MM3,4OVZ,4OW0,5C8S,5C8T,5C8U,5F22,5N19,5N5O,5NFY,5TL6,5TL7,5Y3E,5Y3Q,6JYT,6LNQ,6LNY,6LO0,6NUR,6NUS,6W2A,6W79,6WCO,6XHL,6XHN,6XHO,6XMK,6XOA,7C2K,7JOY

>  <Smiles>
CC(C)(C)C[C@@H](C(N[C@@H](C[C@H](CCN1)C1=O)C(COCc1ccccc1)=O)=O)NC(C1=NC(C=CC=C2OC)C2=C1)=O

$$$$
423433
Actelion Java MolfileCreator 2.0

  0  0  0  0  0  0              0 V3000
M  V30 BEGIN CTAB
M  V30 COUNTS 34 35 0 0 0
M  V30 BEGIN ATOM
M  V30 1 O 0.0 0.0 0.0 0
M  V30 2 C 1.0704 -1.0233 0.0 0
M  V30 3 N 2.4937 -0.5999 0.0 0
M  V30 4 C 0.694 -2.4702 0.0 0
M  V30 5 C 2.8466 0.8704 0.0 0 CFG=2
M  V30 6 N 1.6468 -3.5994 0.0 0
M  V30 7 C -0.7057 -3.023 0.0 0
M  V30 8 C 1.7526 1.9173 0.0 0
M  V30 9 C 4.2699 1.2939 0.0 0
M  V30 10 C 0.8469 -4.8581 0.0 0
M  V30 11 C -0.6116 -4.5052 0.0 0
M  V30 12 O 2.1055 3.3877 0.0 0
M  V30 13 N 0.3058 1.5174 0.0 0
M  V30 14 C 4.6228 2.7643 0.0 0
M  V30 15 C 1.2468 -6.2814 0.0 0
M  V30 16 C -1.6585 -5.5756 0.0 0
M  V30 17 C -0.7881 2.5643 0.0 0 CFG=2
M  V30 18 C 3.5288 3.8112 0.0 0
M  V30 19 C 6.0461 3.1877 0.0 0
M  V30 20 C 0.1999 -7.3518 0.0 0
M  V30 21 O -3.1289 -5.1992 0.0 0
M  V30 22 C -1.2586 -6.9989 0.0 0
M  V30 23 C -0.4352 4.0347 0.0 0
M  V30 24 C -2.2349 2.1643 0.0 0
M  V30 25 C -4.1758 -6.2696 0.0 0
M  V30 26 O 0.988 4.4581 0.0 0
M  V30 27 C -1.5291 5.0816 0.0 0
M  V30 28 C -3.3289 3.2112 0.0 0
M  V30 29 O -1.1762 6.5519 0.0 0
M  V30 30 C -4.7757 2.8113 0.0 0
M  V30 31 O -5.1521 1.3645 0.0 0
M  V30 32 N -5.8697 3.8582 0.0 0
M  V30 33 C -7.3165 3.4583 0.0 0
M  V30 34 C -5.5168 5.3286 0.0 0
M  V30 END ATOM
M  V30 BEGIN BOND
M  V30 1 2 1 2
M  V30 2 1 2 3
M  V30 3 1 2 4
M  V30 4 1 5 3 CFG=3
M  V30 5 2 4 6
M  V30 6 1 4 7
M  V30 7 1 5 8
M  V30 8 1 5 9
M  V30 9 1 6 10
M  V30 10 2 7 11
M  V30 11 2 8 12
M  V30 12 1 8 13
M  V30 13 1 9 14
M  V30 14 1 10 15
M  V30 15 1 11 16
M  V30 16 1 17 13 CFG=1
M  V30 17 1 14 18
M  V30 18 1 14 19
M  V30 19 2 15 20
M  V30 20 1 16 21
M  V30 21 2 16 22
M  V30 22 1 17 23
M  V30 23 1 17 24
M  V30 24 1 21 25
M  V30 25 2 23 26
M  V30 26 1 23 27
M  V30 27 1 24 28
M  V30 28 1 27 29
M  V30 29 1 28 30
M  V30 30 2 30 31
M  V30 31 1 30 32
M  V30 32 1 32 33
M  V30 33 1 32 34
M  V30 34 1 10 11
M  V30 35 1 20 22
M  V30 END BOND
M  V30 BEGIN COLLECTION
M  V30 MDLV30/STEABS ATOMS=(2 5 17)
M  V30 END COLLECTION
M  V30 END CTAB
M  END
>  <Ligand InChI>
InChI=1S/C24H34N4O6/c1-14(2)11-18(23(32)26-17(20(30)13-29)9-10-22(31)28(3)4)27-24(33)19-12-15-16(25-19)7-6-8-21(15)34-5/h6-8,12,14,17-18,25,29H,9-11,13H2,1-5H3,(H,26,32)(H,27,33)/t17-,18-/m0/s1

>  <Ligand InChI Key>
ZJDFRWXSTAEFOZ-ROUUACIJSA-N

>  <BindingDB MonomerID>
423433

>  <Target Name Assigned by Curator or DataSource>
3C-like proteinase (3CL-PRO)

>  <Target Source Organism According to Curator or DataSource>
Human SARS coronavirus

>  <IC50 (nM)>
190

>  <PMID>
WO2005113580A1

>  <Ligand HET ID in PDB>


>  <PDB ID(s) for Ligand-Target Complex>


>  <PubChem CID>


>  <PubChem SID>


>  <ChEMBL ID of Ligand>


>  <DrugBank ID of Ligand>


>  <ZINC ID of Ligand>


>  <PDB ID(s) of Target Chain>
1Q2W,1QZ8,1UJ1,1UK2,1UK3,1UK4,1UW7,1WOF,1Z1I,2A5A,2A5I,2A5K,2ACF,2AHM,2ALV,2AMD,2AMQ,2BX3,2BX4,2C3S,2D2D,2DUC,2FAV,2FE8,2FYG,2G9T,2GA6,2GDT,2GRI,2GT7,2GT8,2GTB,2GX4,2GZ7,2GZ8,2GZ9,2H2Z,2HOB,2HSX,2IDY,2JZF,2K7X,2K87,2KAF,2LIZ,2OP9,2OZK,2RNK,2V6N,2VJ1,2XYQ,2XYR,2XYV,2Z3C,2Z3D,2Z3E,2Z94,2Z9G,2Z9J,2Z9K,2Z9L,2ZU4,2ZU5,3D62,3E91,3E9S,3EA7,3EA8,3EBN,3IWM,3M3V,3MJ5,3R24,3SN8,3SNA,3SNB,3SNC,3SND,3SNE,3SZN,3TIT,3TIU,3TNS,3TNT,3V3M,3VB3,3VB4,3VB5,3VB6,3VB7,4MDS,4MM3,4OVZ,4OW0,5C8S,5C8T,5C8U,5F22,5N19,5N5O,5NFY,5TL6,5TL7,5Y3E,5Y3Q,6JYT,6LNQ,6LNY,6LO0,6NUR,6NUS,6W2A,6W79,6WCO,6XHL,6XHN,6XHO,6XMK,6XOA,7C2K,7JOY

>  <Smiles>
CC(C)C[C@@H](C(N[C@@H](CCC(N(C)C)=O)C(CO)=O)=O)NC(C1=NC(C=CC=C2OC)C2=C1)=O

$$$$
423434
Actelion Java MolfileCreator 2.0

  0  0  0  0  0  0              0 V3000
M  V30 BEGIN CTAB
M  V30 COUNTS 37 39 0 0 0
M  V30 BEGIN ATOM
M  V30 1 O 0.0 0.0 0.0 0
M  V30 2 C -1.3313 -0.6951 0.0 0
M  V30 3 N -2.6979 -0.0235 0.0 0
M  V30 4 C -1.5433 -2.1678 0.0 0 CFG=1
M  V30 5 C -3.7465 -1.0956 0.0 0
M  V30 6 C -3.0278 -2.4152 0.0 0
M  V30 7 C -0.4712 -3.1928 0.0 0
M  V30 8 C -0.8482 -4.6419 0.0 0 CFG=2
M  V30 9 N 0.2238 -5.6669 0.0 0
M  V30 10 C -2.2974 -5.0425 0.0 0
M  V30 11 C 1.6494 -5.2428 0.0 0
M  V30 12 O -2.6744 -6.4916 0.0 0
M  V30 13 C -3.3931 -3.9939 0.0 0
M  V30 14 O 2.0028 -3.7701 0.0 0
M  V30 15 C 2.7215 -6.2678 0.0 0 CFG=1
M  V30 16 O -4.8422 -4.3945 0.0 0
M  V30 17 N 2.3445 -7.7169 0.0 0
M  V30 18 C 4.1471 -5.8436 0.0 0
M  V30 19 C -5.9379 -3.3459 0.0 0
M  V30 20 C 0.8954 -8.1175 0.0 0
M  V30 21 C 4.5005 -4.3709 0.0 0
M  V30 22 O -5.5844 -1.8732 0.0 0
M  V30 23 C -7.387 -3.7465 0.0 0
M  V30 24 O -0.2002 -7.0689 0.0 0
M  V30 25 C 0.5183 -9.5666 0.0 0
M  V30 26 C 3.4048 -3.3224 0.0 0
M  V30 27 C 5.9261 -3.9468 0.0 0
M  V30 28 N 1.4727 -10.6976 0.0 0
M  V30 29 C -0.8836 -10.1203 0.0 0
M  V30 30 C 0.6715 -11.9583 0.0 0
M  V30 31 C -0.7893 -11.6048 0.0 0
M  V30 32 C 1.0721 -13.3839 0.0 0
M  V30 33 C -1.8379 -12.677 0.0 0
M  V30 34 C 0.0235 -14.456 0.0 0
M  V30 35 O -3.3106 -12.2999 0.0 0
M  V30 36 C -1.4373 -14.1025 0.0 0
M  V30 37 C -4.3591 -13.3721 0.0 0
M  V30 END ATOM
M  V30 BEGIN BOND
M  V30 1 2 1 2
M  V30 2 1 2 3
M  V30 3 1 2 4
M  V30 4 1 3 5
M  V30 5 1 4 6
M  V30 6 1 4 7 CFG=3
M  V30 7 1 7 8
M  V30 8 1 8 9 CFG=3
M  V30 9 1 8 10
M  V30 10 1 9 11
M  V30 11 2 10 12
M  V30 12 1 10 13
M  V30 13 2 11 14
M  V30 14 1 11 15
M  V30 15 1 13 16
M  V30 16 1 15 17 CFG=3
M  V30 17 1 15 18
M  V30 18 1 16 19
M  V30 19 1 17 20
M  V30 20 1 18 21
M  V30 21 2 19 22
M  V30 22 1 19 23
M  V30 23 2 20 24
M  V30 24 1 20 25
M  V30 25 1 21 26
M  V30 26 1 21 27
M  V30 27 2 25 28
M  V30 28 1 25 29
M  V30 29 1 28 30
M  V30 30 2 29 31
M  V30 31 1 30 32
M  V30 32 1 31 33
M  V30 33 2 32 34
M  V30 34 1 33 35
M  V30 35 2 33 36
M  V30 36 1 35 37
M  V30 37 1 5 6
M  V30 38 1 30 31
M  V30 39 1 34 36
M  V30 END BOND
M  V30 BEGIN COLLECTION
M  V30 MDLV30/STEABS ATOMS=(3 4 8 15)
M  V30 END COLLECTION
M  V30 END CTAB
M  END
>  <Ligand InChI>
InChI=1S/C26H34N4O7/c1-14(2)10-20(30-26(35)21-12-17-18(28-21)6-5-7-23(17)36-4)25(34)29-19(22(32)13-37-15(3)31)11-16-8-9-27-24(16)33/h5-7,12,14,16,19-20,28H,8-11,13H2,1-4H3,(H,27,33)(H,29,34)(H,30,35)/t16-,19-,20-/m0/s1

>  <Ligand InChI Key>
NIPDSEFWCRXTSR-VDGAXYAQSA-N

>  <BindingDB MonomerID>
423434

>  <Target Name Assigned by Curator or DataSource>
3C-like proteinase (3CL-PRO)

>  <Target Source Organism According to Curator or DataSource>
Human SARS coronavirus

>  <IC50 (nM)>
220

>  <PMID>
WO2005113580A1

>  <Ligand HET ID in PDB>


>  <PDB ID(s) for Ligand-Target Complex>


>  <PubChem CID>


>  <PubChem SID>


>  <ChEMBL ID of Ligand>


>  <DrugBank ID of Ligand>


>  <ZINC ID of Ligand>


>  <PDB ID(s) of Target Chain>
1Q2W,1QZ8,1UJ1,1UK2,1UK3,1UK4,1UW7,1WOF,1Z1I,2A5A,2A5I,2A5K,2ACF,2AHM,2ALV,2AMD,2AMQ,2BX3,2BX4,2C3S,2D2D,2DUC,2FAV,2FE8,2FYG,2G9T,2GA6,2GDT,2GRI,2GT7,2GT8,2GTB,2GX4,2GZ7,2GZ8,2GZ9,2H2Z,2HOB,2HSX,2IDY,2JZF,2K7X,2K87,2KAF,2LIZ,2OP9,2OZK,2RNK,2V6N,2VJ1,2XYQ,2XYR,2XYV,2Z3C,2Z3D,2Z3E,2Z94,2Z9G,2Z9J,2Z9K,2Z9L,2ZU4,2ZU5,3D62,3E91,3E9S,3EA7,3EA8,3EBN,3IWM,3M3V,3MJ5,3R24,3SN8,3SNA,3SNB,3SNC,3SND,3SNE,3SZN,3TIT,3TIU,3TNS,3TNT,3V3M,3VB3,3VB4,3VB5,3VB6,3VB7,4MDS,4MM3,4OVZ,4OW0,5C8S,5C8T,5C8U,5F22,5N19,5N5O,5NFY,5TL6,5TL7,5Y3E,5Y3Q,6JYT,6LNQ,6LNY,6LO0,6NUR,6NUS,6W2A,6W79,6WCO,6XHL,6XHN,6XHO,6XMK,6XOA,7C2K,7JOY

>  <Smiles>
CC(C)C[C@@H](C(N[C@@H](C[C@H](CCN1)C1=O)C(COC(C)=O)=O)=O)NC(C1=NC(C=CC=C2OC)C2=C1)=O

$$$$
423435
Actelion Java MolfileCreator 2.0

  0  0  0  0  0  0              0 V3000
M  V30 BEGIN CTAB
M  V30 COUNTS 39 42 0 0 0
M  V30 BEGIN ATOM
M  V30 1 O 0.0 0.0 0.0 0
M  V30 2 C -0.7432 1.3331 0.0 0
M  V30 3 N -2.2416 1.5337 0.0 0
M  V30 4 C -0.1179 2.7017 0.0 0 CFG=1
M  V30 5 C -2.5365 3.0202 0.0 0
M  V30 6 C -1.2269 3.7399 0.0 0
M  V30 7 C 1.3449 2.9966 0.0 0
M  V30 8 C 1.8286 4.4242 0.0 0 CFG=2
M  V30 9 N 3.2916 4.7192 0.0 0
M  V30 10 C 0.8376 5.5686 0.0 0
M  V30 11 C 4.259 3.5983 0.0 0
M  V30 12 O 1.3213 6.9962 0.0 0
M  V30 13 C -0.6488 5.2973 0.0 0
M  V30 14 O 3.7517 2.1944 0.0 0
M  V30 15 C 5.722 3.8933 0.0 0 CFG=1
M  V30 16 O -1.6399 6.4417 0.0 0
M  V30 17 N 6.6894 2.7725 0.0 0
M  V30 18 C 6.2057 5.3208 0.0 0
M  V30 19 C -3.1264 6.1703 0.0 0
M  V30 20 C 8.1524 3.0674 0.0 0
M  V30 21 C 5.2147 6.4653 0.0 0
M  V30 22 O -4.1175 7.3147 0.0 0
M  V30 23 C -3.6337 4.7663 0.0 0
M  V30 24 O 8.6361 4.495 0.0 0
M  V30 25 C 9.1198 1.9466 0.0 0
M  V30 26 C 3.7281 6.1939 0.0 0
M  V30 27 C 5.6984 7.8928 0.0 0
M  V30 28 C -3.3624 3.3034 0.0 0
M  V30 29 C -4.7781 3.7989 0.0 0
M  V30 30 N 10.6064 2.0882 0.0 0
M  V30 31 C 8.7659 0.4955 0.0 0
M  V30 32 C 11.1845 0.7196 0.0 0
M  V30 33 C 10.0401 -0.2713 0.0 0
M  V30 34 C 12.5884 0.2359 0.0 0
M  V30 35 C 10.3114 -1.7343 0.0 0
M  V30 36 C 12.8598 -1.2269 0.0 0
M  V30 37 O 9.167 -2.7017 0.0 0
M  V30 38 C 11.7154 -2.218 0.0 0
M  V30 39 C 9.4384 -4.1646 0.0 0
M  V30 END ATOM
M  V30 BEGIN BOND
M  V30 1 2 1 2
M  V30 2 1 2 3
M  V30 3 1 2 4
M  V30 4 1 3 5
M  V30 5 1 4 6
M  V30 6 1 4 7 CFG=1
M  V30 7 1 7 8
M  V30 8 1 8 9 CFG=1
M  V30 9 1 8 10
M  V30 10 1 9 11
M  V30 11 2 10 12
M  V30 12 1 10 13
M  V30 13 2 11 14
M  V30 14 1 11 15
M  V30 15 1 13 16
M  V30 16 1 15 17 CFG=3
M  V30 17 1 15 18
M  V30 18 1 16 19
M  V30 19 1 17 20
M  V30 20 1 18 21
M  V30 21 2 19 22
M  V30 22 1 19 23
M  V30 23 2 20 24
M  V30 24 1 20 25
M  V30 25 1 21 26
M  V30 26 1 21 27
M  V30 27 1 23 28
M  V30 28 1 23 29
M  V30 29 2 25 30
M  V30 30 1 25 31
M  V30 31 1 30 32
M  V30 32 2 31 33
M  V30 33 1 32 34
M  V30 34 1 33 35
M  V30 35 2 34 36
M  V30 36 1 35 37
M  V30 37 2 35 38
M  V30 38 1 37 39
M  V30 39 1 5 6
M  V30 40 1 28 29
M  V30 41 1 32 33
M  V30 42 1 36 38
M  V30 END BOND
M  V30 BEGIN COLLECTION
M  V30 MDLV30/STEABS ATOMS=(3 4 8 15)
M  V30 END COLLECTION
M  V30 END CTAB
M  END
>  <Ligand InChI>
InChI=1S/C28H36N4O7/c1-15(2)11-21(32-27(36)22-13-18-19(30-22)5-4-6-24(18)38-3)26(35)31-20(12-17-9-10-29-25(17)34)23(33)14-39-28(37)16-7-8-16/h4-6,13,15-17,20-21,30H,7-12,14H2,1-3H3,(H,29,34)(H,31,35)(H,32,36)/t17-,20-,21-/m0/s1

>  <Ligand InChI Key>
NJDKHIRBWKLHES-YYWHXJBOSA-N

>  <BindingDB MonomerID>
423435

>  <Target Name Assigned by Curator or DataSource>
3C-like proteinase (3CL-PRO)

>  <Target Source Organism According to Curator or DataSource>
Human SARS coronavirus

>  <IC50 (nM)>
180

>  <PMID>
WO2005113580A1

>  <Ligand HET ID in PDB>


>  <PDB ID(s) for Ligand-Target Complex>


>  <PubChem CID>


>  <PubChem SID>


>  <ChEMBL ID of Ligand>


>  <DrugBank ID of Ligand>


>  <ZINC ID of Ligand>


>  <PDB ID(s) of Target Chain>
1Q2W,1QZ8,1UJ1,1UK2,1UK3,1UK4,1UW7,1WOF,1Z1I,2A5A,2A5I,2A5K,2ACF,2AHM,2ALV,2AMD,2AMQ,2BX3,2BX4,2C3S,2D2D,2DUC,2FAV,2FE8,2FYG,2G9T,2GA6,2GDT,2GRI,2GT7,2GT8,2GTB,2GX4,2GZ7,2GZ8,2GZ9,2H2Z,2HOB,2HSX,2IDY,2JZF,2K7X,2K87,2KAF,2LIZ,2OP9,2OZK,2RNK,2V6N,2VJ1,2XYQ,2XYR,2XYV,2Z3C,2Z3D,2Z3E,2Z94,2Z9G,2Z9J,2Z9K,2Z9L,2ZU4,2ZU5,3D62,3E91,3E9S,3EA7,3EA8,3EBN,3IWM,3M3V,3MJ5,3R24,3SN8,3SNA,3SNB,3SNC,3SND,3SNE,3SZN,3TIT,3TIU,3TNS,3TNT,3V3M,3VB3,3VB4,3VB5,3VB6,3VB7,4MDS,4MM3,4OVZ,4OW0,5C8S,5C8T,5C8U,5F22,5N19,5N5O,5NFY,5TL6,5TL7,5Y3E,5Y3Q,6JYT,6LNQ,6LNY,6LO0,6NUR,6NUS,6W2A,6W79,6WCO,6XHL,6XHN,6XHO,6XMK,6XOA,7C2K,7JOY

>  <Smiles>
CC(C)C[C@@H](C(N[C@@H](C[C@H](CCN1)C1=O)C(COC(C1CC1)=O)=O)=O)NC(C1=NC(C=CC=C2OC)C2=C1)=O

$$$$
423436
Actelion Java MolfileCreator 2.0

  0  0  0  0  0  0              0 V3000
M  V30 BEGIN CTAB
M  V30 COUNTS 40 42 0 0 0
M  V30 BEGIN ATOM
M  V30 1 O 0.0 0.0 0.0 0
M  V30 2 C -1.3917 -0.5661 0.0 0
M  V30 3 N -2.689 0.224 0.0 0
M  V30 4 C -1.7455 -2.0168 0.0 0 CFG=1
M  V30 5 C -3.8331 -0.743 0.0 0
M  V30 6 C -3.2552 -2.1347 0.0 0
M  V30 7 C -0.7784 -3.1372 0.0 0
M  V30 8 C -1.2855 -4.5407 0.0 0 CFG=2
M  V30 9 N -0.3184 -5.6612 0.0 0
M  V30 10 C -2.7716 -4.812 0.0 0
M  V30 11 C 1.144 -5.3663 0.0 0
M  V30 12 O -3.2788 -6.2155 0.0 0
M  V30 13 C -3.7623 -3.668 0.0 0
M  V30 14 O 1.6276 -3.9392 0.0 0
M  V30 15 C 2.1111 -6.4868 0.0 0 CFG=1
M  V30 16 O -5.2484 -3.9392 0.0 0
M  V30 17 N 1.604 -7.8903 0.0 0
M  V30 18 C 3.5736 -6.1919 0.0 0
M  V30 19 C -6.2391 -2.7952 0.0 0
M  V30 20 C 0.1179 -8.1616 0.0 0
M  V30 21 C 4.0572 -4.7648 0.0 0
M  V30 22 O -5.7556 -1.3681 0.0 0
M  V30 23 C -7.7252 -3.0665 0.0 0
M  V30 24 O -0.8727 -7.0175 0.0 0
M  V30 25 C -0.3892 -9.5651 0.0 0
M  V30 26 C 3.0665 -3.6208 0.0 0
M  V30 27 C 5.5197 -4.47 0.0 0
M  V30 28 C -9.2113 -3.3377 0.0 0
M  V30 29 C -8.02 -1.5804 0.0 0
M  V30 30 C -7.4539 -4.5289 0.0 0
M  V30 31 N 0.4599 -10.7799 0.0 0
M  V30 32 C -1.8399 -9.9897 0.0 0
M  V30 33 C -0.4599 -11.9593 0.0 0
M  V30 34 C -1.8752 -11.4758 0.0 0
M  V30 35 C -0.1887 -13.4218 0.0 0
M  V30 36 C -3.0193 -12.4429 0.0 0
M  V30 37 C -1.3327 -14.389 0.0 0
M  V30 38 O -4.4464 -11.9357 0.0 0
M  V30 39 C -2.748 -13.9054 0.0 0
M  V30 40 C -5.5904 -12.9029 0.0 0
M  V30 END ATOM
M  V30 BEGIN BOND
M  V30 1 2 1 2
M  V30 2 1 2 3
M  V30 3 1 2 4
M  V30 4 1 3 5
M  V30 5 1 4 6
M  V30 6 1 4 7 CFG=3
M  V30 7 1 7 8
M  V30 8 1 8 9 CFG=3
M  V30 9 1 8 10
M  V30 10 1 9 11
M  V30 11 2 10 12
M  V30 12 1 10 13
M  V30 13 2 11 14
M  V30 14 1 11 15
M  V30 15 1 13 16
M  V30 16 1 15 17 CFG=3
M  V30 17 1 15 18
M  V30 18 1 16 19
M  V30 19 1 17 20
M  V30 20 1 18 21
M  V30 21 2 19 22
M  V30 22 1 19 23
M  V30 23 2 20 24
M  V30 24 1 20 25
M  V30 25 1 21 26
M  V30 26 1 21 27
M  V30 27 1 23 28
M  V30 28 1 23 29
M  V30 29 1 23 30
M  V30 30 2 25 31
M  V30 31 1 25 32
M  V30 32 1 31 33
M  V30 33 2 32 34
M  V30 34 1 33 35
M  V30 35 1 34 36
M  V30 36 2 35 37
M  V30 37 1 36 38
M  V30 38 2 36 39
M  V30 39 1 38 40
M  V30 40 1 5 6
M  V30 41 1 33 34
M  V30 42 1 37 39
M  V30 END BOND
M  V30 BEGIN COLLECTION
M  V30 MDLV30/STEABS ATOMS=(3 4 8 15)
M  V30 END COLLECTION
M  V30 END CTAB
M  END
>  <Ligand InChI>
InChI=1S/C29H40N4O7/c1-16(2)12-21(33-27(37)22-14-18-19(31-22)8-7-9-24(18)39-6)26(36)32-20(13-17-10-11-30-25(17)35)23(34)15-40-28(38)29(3,4)5/h7-9,14,16-17,20-21,31H,10-13,15H2,1-6H3,(H,30,35)(H,32,36)(H,33,37)/t17-,20-,21-/m0/s1

>  <Ligand InChI Key>
STJUYOUQLTVKIO-YYWHXJBOSA-N

>  <BindingDB MonomerID>
423436

>  <Target Name Assigned by Curator or DataSource>
3C-like proteinase (3CL-PRO)

>  <Target Source Organism According to Curator or DataSource>
Human SARS coronavirus

>  <IC50 (nM)>
230

>  <PMID>
WO2005113580A1

>  <Ligand HET ID in PDB>


>  <PDB ID(s) for Ligand-Target Complex>


>  <PubChem CID>


>  <PubChem SID>


>  <ChEMBL ID of Ligand>


>  <DrugBank ID of Ligand>


>  <ZINC ID of Ligand>


>  <PDB ID(s) of Target Chain>
1Q2W,1QZ8,1UJ1,1UK2,1UK3,1UK4,1UW7,1WOF,1Z1I,2A5A,2A5I,2A5K,2ACF,2AHM,2ALV,2AMD,2AMQ,2BX3,2BX4,2C3S,2D2D,2DUC,2FAV,2FE8,2FYG,2G9T,2GA6,2GDT,2GRI,2GT7,2GT8,2GTB,2GX4,2GZ7,2GZ8,2GZ9,2H2Z,2HOB,2HSX,2IDY,2JZF,2K7X,2K87,2KAF,2LIZ,2OP9,2OZK,2RNK,2V6N,2VJ1,2XYQ,2XYR,2XYV,2Z3C,2Z3D,2Z3E,2Z94,2Z9G,2Z9J,2Z9K,2Z9L,2ZU4,2ZU5,3D62,3E91,3E9S,3EA7,3EA8,3EBN,3IWM,3M3V,3MJ5,3R24,3SN8,3SNA,3SNB,3SNC,3SND,3SNE,3SZN,3TIT,3TIU,3TNS,3TNT,3V3M,3VB3,3VB4,3VB5,3VB6,3VB7,4MDS,4MM3,4OVZ,4OW0,5C8S,5C8T,5C8U,5F22,5N19,5N5O,5NFY,5TL6,5TL7,5Y3E,5Y3Q,6JYT,6LNQ,6LNY,6LO0,6NUR,6NUS,6W2A,6W79,6WCO,6XHL,6XHN,6XHO,6XMK,6XOA,7C2K,7JOY

>  <Smiles>
CC(C)C[C@@H](C(N[C@@H](C[C@H](CCN1)C1=O)C(COC(C(C)(C)C)=O)=O)=O)NC(C1=NC(C=CC=C2OC)C2=C1)=O

$$$$
423437
Actelion Java MolfileCreator 2.0

  0  0  0  0  0  0              0 V3000
M  V30 BEGIN CTAB
M  V30 COUNTS 39 41 0 0 0
M  V30 BEGIN ATOM
M  V30 1 Cl 0.0 0.0 0.0 0
M  V30 2 C -0.0117 -1.4841 0.0 0
M  V30 3 C -1.3192 -2.2261 0.0 0
M  V30 4 C 1.272 -2.2261 0.0 0
M  V30 5 C -1.3309 -3.7102 0.0 0
M  V30 6 C -2.6266 -1.4605 0.0 0
M  V30 7 C 1.2603 -3.7102 0.0 0
M  V30 8 Cl -2.6384 -4.4523 0.0 0
M  V30 9 C -0.0471 -4.4523 0.0 0
M  V30 10 O -2.6384 0.0471 0.0 0
M  V30 11 O -3.934 -2.2025 0.0 0
M  V30 12 C -5.2414 -1.4369 0.0 0
M  V30 13 C -6.5488 -2.179 0.0 0
M  V30 14 O -6.5606 -3.6631 0.0 0
M  V30 15 C -7.8563 -1.4134 0.0 0 CFG=1
M  V30 16 N -9.1637 -2.1554 0.0 0
M  V30 17 C -7.868 0.0942 0.0 0
M  V30 18 C -10.4711 -1.3898 0.0 0
M  V30 19 C -6.5842 0.848 0.0 0 CFG=1
M  V30 20 O -10.4829 0.1177 0.0 0
M  V30 21 C -11.7785 -2.1319 0.0 0 CFG=1
M  V30 22 C -6.4428 2.3439 0.0 0
M  V30 23 C -5.2296 0.2473 0.0 0
M  V30 24 N -13.086 -1.3663 0.0 0
M  V30 25 C -11.7903 -3.616 0.0 0
M  V30 26 O -7.5618 3.3568 0.0 0
M  V30 27 N -4.9941 2.6619 0.0 0
M  V30 28 C -4.2402 1.3663 0.0 0
M  V30 29 C -13.0977 0.1413 0.0 0
M  V30 30 C -13.0977 -4.358 0.0 0
M  V30 31 O -11.8139 0.8951 0.0 0
M  V30 32 C -14.4052 0.8951 0.0 0 CFG=2
M  V30 33 C -13.8633 -3.0506 0.0 0
M  V30 34 C -12.3557 -5.6419 0.0 0
M  V30 35 C -14.4052 -5.1001 0.0 0
M  V30 36 O -14.5701 2.391 0.0 0
M  V30 37 C -15.7833 0.2944 0.0 0
M  V30 38 C -16.0424 2.709 0.0 0
M  V30 39 C -16.7962 1.4134 0.0 0
M  V30 END ATOM
M  V30 BEGIN BOND
M  V30 1 1 1 2
M  V30 2 2 2 3
M  V30 3 1 2 4
M  V30 4 1 3 5
M  V30 5 1 3 6
M  V30 6 2 4 7
M  V30 7 1 5 8
M  V30 8 2 5 9
M  V30 9 2 6 10
M  V30 10 1 6 11
M  V30 11 1 11 12
M  V30 12 1 12 13
M  V30 13 2 13 14
M  V30 14 1 13 15
M  V30 15 1 15 16 CFG=1
M  V30 16 1 15 17
M  V30 17 1 16 18
M  V30 18 1 19 17 CFG=1
M  V30 19 2 18 20
M  V30 20 1 18 21
M  V30 21 1 19 22
M  V30 22 1 19 23
M  V30 23 1 21 24 CFG=3
M  V30 24 1 21 25
M  V30 25 2 22 26
M  V30 26 1 22 27
M  V30 27 1 23 28
M  V30 28 1 24 29
M  V30 29 1 25 30
M  V30 30 2 29 31
M  V30 31 1 32 29 CFG=1
M  V30 32 1 30 33
M  V30 33 1 30 34
M  V30 34 1 30 35
M  V30 35 1 32 36
M  V30 36 1 32 37
M  V30 37 1 36 38
M  V30 38 1 37 39
M  V30 39 1 7 9
M  V30 40 1 27 28
M  V30 41 1 38 39
M  V30 END BOND
M  V30 BEGIN COLLECTION
M  V30 MDLV30/STEABS ATOMS=(4 15 19 21 32)
M  V30 END COLLECTION
M  V30 END CTAB
M  END
>  <Ligand InChI>
InChI=1S/C27H35Cl2N3O7/c1-27(2,3)13-19(32-25(36)21-8-5-11-38-21)24(35)31-18(12-15-9-10-30-23(15)34)20(33)14-39-26(37)22-16(28)6-4-7-17(22)29/h4,6-7,15,18-19,21H,5,8-14H2,1-3H3,(H,30,34)(H,31,35)(H,32,36)/t15-,18-,19-,21+/m0/s1

>  <Ligand InChI Key>
CQNWJNAANCPDSO-LDBRAYGESA-N

>  <BindingDB MonomerID>
423437

>  <Target Name Assigned by Curator or DataSource>
3C-like proteinase (3CL-PRO)

>  <Target Source Organism According to Curator or DataSource>
Human SARS coronavirus

>  <IC50 (nM)>
133

>  <PMID>
WO2005113580A1

>  <Ligand HET ID in PDB>


>  <PDB ID(s) for Ligand-Target Complex>


>  <PubChem CID>


>  <PubChem SID>


>  <ChEMBL ID of Ligand>


>  <DrugBank ID of Ligand>


>  <ZINC ID of Ligand>


>  <PDB ID(s) of Target Chain>
1Q2W,1QZ8,1UJ1,1UK2,1UK3,1UK4,1UW7,1WOF,1Z1I,2A5A,2A5I,2A5K,2ACF,2AHM,2ALV,2AMD,2AMQ,2BX3,2BX4,2C3S,2D2D,2DUC,2FAV,2FE8,2FYG,2G9T,2GA6,2GDT,2GRI,2GT7,2GT8,2GTB,2GX4,2GZ7,2GZ8,2GZ9,2H2Z,2HOB,2HSX,2IDY,2JZF,2K7X,2K87,2KAF,2LIZ,2OP9,2OZK,2RNK,2V6N,2VJ1,2XYQ,2XYR,2XYV,2Z3C,2Z3D,2Z3E,2Z94,2Z9G,2Z9J,2Z9K,2Z9L,2ZU4,2ZU5,3D62,3E91,3E9S,3EA7,3EA8,3EBN,3IWM,3M3V,3MJ5,3R24,3SN8,3SNA,3SNB,3SNC,3SND,3SNE,3SZN,3TIT,3TIU,3TNS,3TNT,3V3M,3VB3,3VB4,3VB5,3VB6,3VB7,4MDS,4MM3,4OVZ,4OW0,5C8S,5C8T,5C8U,5F22,5N19,5N5O,5NFY,5TL6,5TL7,5Y3E,5Y3Q,6JYT,6LNQ,6LNY,6LO0,6NUR,6NUS,6W2A,6W79,6WCO,6XHL,6XHN,6XHO,6XMK,6XOA,7C2K,7JOY

>  <Smiles>
CC(C)(C)C[C@@H](C(N[C@@H](C[C@H](CCN1)C1=O)C(COC(c(c(Cl)ccc1)c1Cl)=O)=O)=O)NC([C@@H]1OCCC1)=O

$$$$
423438
Actelion Java MolfileCreator 2.0

  0  0  0  0  0  0              0 V3000
M  V30 BEGIN CTAB
M  V30 COUNTS 42 45 0 0 0
M  V30 BEGIN ATOM
M  V30 1 O 0.0 0.0 0.0 0
M  V30 2 C -0.7424 1.3316 0.0 0
M  V30 3 N -2.239 1.5319 0.0 0
M  V30 4 C -0.1178 2.6986 0.0 0 CFG=1
M  V30 5 C -2.5336 3.0167 0.0 0
M  V30 6 C -1.2255 3.7356 0.0 0
M  V30 7 C 1.3434 2.9932 0.0 0
M  V30 8 C 1.8265 4.4191 0.0 0 CFG=2
M  V30 9 N 3.2878 4.7137 0.0 0
M  V30 10 C 0.8366 5.5622 0.0 0
M  V30 11 C 4.2541 3.5942 0.0 0
M  V30 12 O 1.3198 6.9881 0.0 0
M  V30 13 C -0.6481 5.2911 0.0 0
M  V30 14 O 3.7474 2.1918 0.0 0
M  V30 15 C 5.7154 3.8888 0.0 0 CFG=1
M  V30 16 O -1.638 6.4342 0.0 0
M  V30 17 N 6.6817 2.7693 0.0 0
M  V30 18 C 6.1985 5.3147 0.0 0
M  V30 19 C -3.1228 6.1632 0.0 0
M  V30 20 C 8.1429 3.0639 0.0 0
M  V30 21 C 5.2086 6.4578 0.0 0
M  V30 22 O -3.6295 4.7608 0.0 0
M  V30 23 C -4.1127 7.3063 0.0 0
M  V30 24 O 8.6261 4.4898 0.0 0
M  V30 25 C 9.1093 1.9444 0.0 0
M  V30 26 C 3.7238 6.1867 0.0 0
M  V30 27 C 5.6918 7.8837 0.0 0
M  V30 28 C -5.5975 7.0352 0.0 0
M  V30 29 C -3.6295 8.7322 0.0 0
M  V30 30 N 10.5941 2.0858 0.0 0
M  V30 31 C 8.7557 0.4949 0.0 0
M  V30 32 C -6.5874 8.1783 0.0 0
M  V30 33 C -4.6194 9.8752 0.0 0
M  V30 34 C 11.1715 0.7188 0.0 0
M  V30 35 C 10.0284 -0.271 0.0 0
M  V30 36 C -6.1042 9.6042 0.0 0
M  V30 37 C 12.5739 0.2356 0.0 0
M  V30 38 C 10.2995 -1.7323 0.0 0
M  V30 39 C 12.8449 -1.2255 0.0 0
M  V30 40 O 9.1564 -2.6986 0.0 0
M  V30 41 C 11.7018 -2.2154 0.0 0
M  V30 42 C 9.4274 -4.1598 0.0 0
M  V30 END ATOM
M  V30 BEGIN BOND
M  V30 1 2 1 2
M  V30 2 1 2 3
M  V30 3 1 2 4
M  V30 4 1 3 5
M  V30 5 1 4 6
M  V30 6 1 4 7 CFG=1
M  V30 7 1 7 8
M  V30 8 1 8 9 CFG=1
M  V30 9 1 8 10
M  V30 10 1 9 11
M  V30 11 2 10 12
M  V30 12 1 10 13
M  V30 13 2 11 14
M  V30 14 1 11 15
M  V30 15 1 13 16
M  V30 16 1 15 17 CFG=3
M  V30 17 1 15 18
M  V30 18 1 16 19
M  V30 19 1 17 20
M  V30 20 1 18 21
M  V30 21 2 19 22
M  V30 22 1 19 23
M  V30 23 2 20 24
M  V30 24 1 20 25
M  V30 25 1 21 26
M  V30 26 1 21 27
M  V30 27 2 23 28
M  V30 28 1 23 29
M  V30 29 2 25 30
M  V30 30 1 25 31
M  V30 31 1 28 32
M  V30 32 2 29 33
M  V30 33 1 30 34
M  V30 34 2 31 35
M  V30 35 2 32 36
M  V30 36 1 34 37
M  V30 37 1 35 38
M  V30 38 2 37 39
M  V30 39 1 38 40
M  V30 40 2 38 41
M  V30 41 1 40 42
M  V30 42 1 5 6
M  V30 43 1 33 36
M  V30 44 1 34 35
M  V30 45 1 39 41
M  V30 END BOND
M  V30 BEGIN COLLECTION
M  V30 MDLV30/STEABS ATOMS=(3 4 8 15)
M  V30 END COLLECTION
M  V30 END CTAB
M  END
>  <Ligand InChI>
InChI=1S/C31H36N4O7/c1-18(2)14-24(35-30(39)25-16-21-22(33-25)10-7-11-27(21)41-3)29(38)34-23(15-20-12-13-32-28(20)37)26(36)17-42-31(40)19-8-5-4-6-9-19/h4-11,16,18,20,23-24,33H,12-15,17H2,1-3H3,(H,32,37)(H,34,38)(H,35,39)/t20-,23-,24-/m0/s1

>  <Ligand InChI Key>
VPIAXHFAMJPKLL-OYDLWJJNSA-N

>  <BindingDB MonomerID>
423438

>  <Target Name Assigned by Curator or DataSource>
3C-like proteinase (3CL-PRO)

>  <Target Source Organism According to Curator or DataSource>
Human SARS coronavirus

>  <IC50 (nM)>
86

>  <PMID>
WO2005113580A1

>  <Ligand HET ID in PDB>


>  <PDB ID(s) for Ligand-Target Complex>


>  <PubChem CID>


>  <PubChem SID>


>  <ChEMBL ID of Ligand>


>  <DrugBank ID of Ligand>


>  <ZINC ID of Ligand>


>  <PDB ID(s) of Target Chain>
1Q2W,1QZ8,1UJ1,1UK2,1UK3,1UK4,1UW7,1WOF,1Z1I,2A5A,2A5I,2A5K,2ACF,2AHM,2ALV,2AMD,2AMQ,2BX3,2BX4,2C3S,2D2D,2DUC,2FAV,2FE8,2FYG,2G9T,2GA6,2GDT,2GRI,2GT7,2GT8,2GTB,2GX4,2GZ7,2GZ8,2GZ9,2H2Z,2HOB,2HSX,2IDY,2JZF,2K7X,2K87,2KAF,2LIZ,2OP9,2OZK,2RNK,2V6N,2VJ1,2XYQ,2XYR,2XYV,2Z3C,2Z3D,2Z3E,2Z94,2Z9G,2Z9J,2Z9K,2Z9L,2ZU4,2ZU5,3D62,3E91,3E9S,3EA7,3EA8,3EBN,3IWM,3M3V,3MJ5,3R24,3SN8,3SNA,3SNB,3SNC,3SND,3SNE,3SZN,3TIT,3TIU,3TNS,3TNT,3V3M,3VB3,3VB4,3VB5,3VB6,3VB7,4MDS,4MM3,4OVZ,4OW0,5C8S,5C8T,5C8U,5F22,5N19,5N5O,5NFY,5TL6,5TL7,5Y3E,5Y3Q,6JYT,6LNQ,6LNY,6LO0,6NUR,6NUS,6W2A,6W79,6WCO,6XHL,6XHN,6XHO,6XMK,6XOA,7C2K,7JOY

>  <Smiles>
CC(C)C[C@@H](C(N[C@@H](C[C@H](CCN1)C1=O)C(COC(c1ccccc1)=O)=O)=O)NC(C1=NC(C=CC=C2OC)C2=C1)=O

$$$$
423439
Actelion Java MolfileCreator 2.0

  0  0  0  0  0  0              0 V3000
M  V30 BEGIN CTAB
M  V30 COUNTS 43 46 0 0 0
M  V30 BEGIN ATOM
M  V30 1 O 0.0 0.0 0.0 0
M  V30 2 C -0.7422 1.3313 0.0 0
M  V30 3 N -2.2386 1.5316 0.0 0
M  V30 4 C -0.1178 2.6981 0.0 0 CFG=1
M  V30 5 C -2.5331 3.0162 0.0 0
M  V30 6 C -1.2253 3.7349 0.0 0
M  V30 7 C 1.3431 2.9927 0.0 0
M  V30 8 C 1.8262 4.4183 0.0 0 CFG=2
M  V30 9 N 3.2872 4.7129 0.0 0
M  V30 10 C 0.8365 5.5612 0.0 0
M  V30 11 C 4.2534 3.5935 0.0 0
M  V30 12 O 1.3196 6.9868 0.0 0
M  V30 13 C -0.648 5.2902 0.0 0
M  V30 14 O 3.7467 2.1915 0.0 0
M  V30 15 C 5.7144 3.8881 0.0 0 CFG=1
M  V30 16 O -1.6377 6.4331 0.0 0
M  V30 17 N 6.6805 2.7688 0.0 0
M  V30 18 C 6.1974 5.3138 0.0 0
M  V30 19 C -3.1223 6.1621 0.0 0
M  V30 20 C 8.1415 3.0633 0.0 0
M  V30 21 C 5.2077 6.4566 0.0 0
M  V30 22 O -3.6289 4.76 0.0 0
M  V30 23 C -4.112 7.305 0.0 0
M  V30 24 O 8.6246 4.489 0.0 0
M  V30 25 C 9.1077 1.944 0.0 0
M  V30 26 C 3.7232 6.1857 0.0 0
M  V30 27 C 5.6908 7.8823 0.0 0
M  V30 28 C -5.5965 7.034 0.0 0
M  V30 29 C -3.6289 8.7306 0.0 0
M  V30 30 N 10.5922 2.0854 0.0 0
M  V30 31 C 8.7542 0.4948 0.0 0
M  V30 32 C -6.5863 8.1769 0.0 0
M  V30 33 C -4.6186 9.8735 0.0 0
M  V30 34 C 11.1696 0.7187 0.0 0
M  V30 35 C 10.0267 -0.2709 0.0 0
M  V30 36 C -6.1032 9.6025 0.0 0
M  V30 37 C 12.5717 0.2356 0.0 0
M  V30 38 C 10.2977 -1.7319 0.0 0
M  V30 39 C -7.0929 10.7454 0.0 0
M  V30 40 C 12.8426 -1.2253 0.0 0
M  V30 41 O 9.1548 -2.6981 0.0 0
M  V30 42 C 11.6998 -2.215 0.0 0
M  V30 43 C 9.4258 -4.1591 0.0 0
M  V30 END ATOM
M  V30 BEGIN BOND
M  V30 1 2 1 2
M  V30 2 1 2 3
M  V30 3 1 2 4
M  V30 4 1 3 5
M  V30 5 1 4 6
M  V30 6 1 4 7 CFG=1
M  V30 7 1 7 8
M  V30 8 1 8 9 CFG=1
M  V30 9 1 8 10
M  V30 10 1 9 11
M  V30 11 2 10 12
M  V30 12 1 10 13
M  V30 13 2 11 14
M  V30 14 1 11 15
M  V30 15 1 13 16
M  V30 16 1 15 17 CFG=3
M  V30 17 1 15 18
M  V30 18 1 16 19
M  V30 19 1 17 20
M  V30 20 1 18 21
M  V30 21 2 19 22
M  V30 22 1 19 23
M  V30 23 2 20 24
M  V30 24 1 20 25
M  V30 25 1 21 26
M  V30 26 1 21 27
M  V30 27 2 23 28
M  V30 28 1 23 29
M  V30 29 2 25 30
M  V30 30 1 25 31
M  V30 31 1 28 32
M  V30 32 2 29 33
M  V30 33 1 30 34
M  V30 34 2 31 35
M  V30 35 2 32 36
M  V30 36 1 34 37
M  V30 37 1 35 38
M  V30 38 1 36 39
M  V30 39 2 37 40
M  V30 40 1 38 41
M  V30 41 2 38 42
M  V30 42 1 41 43
M  V30 43 1 5 6
M  V30 44 1 33 36
M  V30 45 1 34 35
M  V30 46 1 40 42
M  V30 END BOND
M  V30 BEGIN COLLECTION
M  V30 MDLV30/STEABS ATOMS=(3 4 8 15)
M  V30 END COLLECTION
M  V30 END CTAB
M  END
>  <Ligand InChI>
InChI=1S/C32H38N4O7/c1-18(2)14-25(36-31(40)26-16-22-23(34-26)6-5-7-28(22)42-4)30(39)35-24(15-21-12-13-33-29(21)38)27(37)17-43-32(41)20-10-8-19(3)9-11-20/h5-11,16,18,21,24-25,34H,12-15,17H2,1-4H3,(H,33,38)(H,35,39)(H,36,40)/t21-,24-,25-/m0/s1

>  <Ligand InChI Key>
DEWVBRYUJIZIFD-TUSQITKMSA-N

>  <BindingDB MonomerID>
423439

>  <Target Name Assigned by Curator or DataSource>
3C-like proteinase (3CL-PRO)

>  <Target Source Organism According to Curator or DataSource>
Human SARS coronavirus

>  <IC50 (nM)>
82

>  <PMID>
WO2005113580A1

>  <Ligand HET ID in PDB>


>  <PDB ID(s) for Ligand-Target Complex>


>  <PubChem CID>


>  <PubChem SID>


>  <ChEMBL ID of Ligand>


>  <DrugBank ID of Ligand>


>  <ZINC ID of Ligand>


>  <PDB ID(s) of Target Chain>
1Q2W,1QZ8,1UJ1,1UK2,1UK3,1UK4,1UW7,1WOF,1Z1I,2A5A,2A5I,2A5K,2ACF,2AHM,2ALV,2AMD,2AMQ,2BX3,2BX4,2C3S,2D2D,2DUC,2FAV,2FE8,2FYG,2G9T,2GA6,2GDT,2GRI,2GT7,2GT8,2GTB,2GX4,2GZ7,2GZ8,2GZ9,2H2Z,2HOB,2HSX,2IDY,2JZF,2K7X,2K87,2KAF,2LIZ,2OP9,2OZK,2RNK,2V6N,2VJ1,2XYQ,2XYR,2XYV,2Z3C,2Z3D,2Z3E,2Z94,2Z9G,2Z9J,2Z9K,2Z9L,2ZU4,2ZU5,3D62,3E91,3E9S,3EA7,3EA8,3EBN,3IWM,3M3V,3MJ5,3R24,3SN8,3SNA,3SNB,3SNC,3SND,3SNE,3SZN,3TIT,3TIU,3TNS,3TNT,3V3M,3VB3,3VB4,3VB5,3VB6,3VB7,4MDS,4MM3,4OVZ,4OW0,5C8S,5C8T,5C8U,5F22,5N19,5N5O,5NFY,5TL6,5TL7,5Y3E,5Y3Q,6JYT,6LNQ,6LNY,6LO0,6NUR,6NUS,6W2A,6W79,6WCO,6XHL,6XHN,6XHO,6XMK,6XOA,7C2K,7JOY

>  <Smiles>
CC(C)C[C@@H](C(N[C@@H](C[C@H](CCN1)C1=O)C(COC(c1ccc(C)cc1)=O)=O)=O)NC(C1=NC(C=CC=C2OC)C2=C1)=O

$$$$
423440
Actelion Java MolfileCreator 2.0

  0  0  0  0  0  0              0 V3000
M  V30 BEGIN CTAB
M  V30 COUNTS 43 46 0 0 0
M  V30 BEGIN ATOM
M  V30 1 F 0.0 0.0 0.0 0
M  V30 2 C 0.9709 -1.1249 0.0 0
M  V30 3 C 0.4618 -2.534 0.0 0
M  V30 4 C 2.4393 -0.8289 0.0 0
M  V30 5 C 1.4328 -3.659 0.0 0
M  V30 6 C 3.4103 -1.9538 0.0 0
M  V30 7 C 2.9011 -3.3629 0.0 0
M  V30 8 C 3.8721 -4.4879 0.0 0
M  V30 9 O 3.3629 -5.897 0.0 0
M  V30 10 O 5.3404 -4.1918 0.0 0
M  V30 11 C 6.3114 -5.3168 0.0 0
M  V30 12 C 7.7798 -5.0207 0.0 0
M  V30 13 O 8.2653 -3.5879 0.0 0
M  V30 14 C 8.7508 -6.1457 0.0 0 CFG=1
M  V30 15 N 10.2191 -5.8496 0.0 0
M  V30 16 C 8.2416 -7.5548 0.0 0
M  V30 17 C 11.1901 -6.9746 0.0 0
M  V30 18 C 6.7496 -7.8271 0.0 0 CFG=1
M  V30 19 O 10.6809 -8.3837 0.0 0
M  V30 20 C 12.6584 -6.6785 0.0 0 CFG=1
M  V30 21 C 6.0983 -9.1771 0.0 0
M  V30 22 C 5.6365 -6.7851 0.0 0
M  V30 23 N 13.6294 -7.8035 0.0 0
M  V30 24 C 13.1439 -5.2457 0.0 0
M  V30 25 O 6.8206 -10.4915 0.0 0
M  V30 26 N 4.5944 -8.9758 0.0 0
M  V30 27 C 4.2984 -7.5074 0.0 0
M  V30 28 C 15.0978 -7.5074 0.0 0
M  V30 29 C 12.1493 -4.0971 0.0 0
M  V30 30 O 15.5833 -6.0746 0.0 0
M  V30 31 C 16.0688 -8.6324 0.0 0
M  V30 32 C 10.6572 -4.3694 0.0 0
M  V30 33 C 12.6348 -2.6643 0.0 0
M  V30 34 N 17.5608 -8.4903 0.0 0
M  V30 35 C 15.7135 -10.0889 0.0 0
M  V30 36 C 18.141 -9.8639 0.0 0
M  V30 37 C 16.9924 -10.8585 0.0 0
M  V30 38 C 19.5502 -10.3494 0.0 0
M  V30 39 C 17.2648 -12.3269 0.0 0
M  V30 40 C 19.8225 -11.8177 0.0 0
M  V30 41 O 16.1161 -13.2979 0.0 0
M  V30 42 C 18.6739 -12.8124 0.0 0
M  V30 43 C 16.3885 -14.7662 0.0 0
M  V30 END ATOM
M  V30 BEGIN BOND
M  V30 1 1 1 2
M  V30 2 2 2 3
M  V30 3 1 2 4
M  V30 4 1 3 5
M  V30 5 2 4 6
M  V30 6 2 5 7
M  V30 7 1 7 8
M  V30 8 2 8 9
M  V30 9 1 8 10
M  V30 10 1 10 11
M  V30 11 1 11 12
M  V30 12 2 12 13
M  V30 13 1 12 14
M  V30 14 1 14 15 CFG=1
M  V30 15 1 14 16
M  V30 16 1 15 17
M  V30 17 1 18 16 CFG=1
M  V30 18 2 17 19
M  V30 19 1 17 20
M  V30 20 1 18 21
M  V30 21 1 18 22
M  V30 22 1 20 23 CFG=3
M  V30 23 1 20 24
M  V30 24 2 21 25
M  V30 25 1 21 26
M  V30 26 1 22 27
M  V30 27 1 23 28
M  V30 28 1 24 29
M  V30 29 2 28 30
M  V30 30 1 28 31
M  V30 31 1 29 32
M  V30 32 1 29 33
M  V30 33 2 31 34
M  V30 34 1 31 35
M  V30 35 1 34 36
M  V30 36 2 35 37
M  V30 37 1 36 38
M  V30 38 1 37 39
M  V30 39 2 38 40
M  V30 40 1 39 41
M  V30 41 2 39 42
M  V30 42 1 41 43
M  V30 43 1 6 7
M  V30 44 1 26 27
M  V30 45 1 36 37
M  V30 46 1 40 42
M  V30 END BOND
M  V30 BEGIN COLLECTION
M  V30 MDLV30/STEABS ATOMS=(3 14 18 20)
M  V30 END COLLECTION
M  V30 END CTAB
M  END
>  <Ligand InChI>
InChI=1S/C31H35FN4O7/c1-17(2)13-24(36-30(40)25-15-21-22(34-25)5-4-6-27(21)42-3)29(39)35-23(14-19-11-12-33-28(19)38)26(37)16-43-31(41)18-7-9-20(32)10-8-18/h4-10,15,17,19,23-24,34H,11-14,16H2,1-3H3,(H,33,38)(H,35,39)(H,36,40)/t19-,23-,24-/m0/s1

>  <Ligand InChI Key>
UUKGLZPXHPVYPL-IGKWTDBASA-N

>  <BindingDB MonomerID>
423440

>  <Target Name Assigned by Curator or DataSource>
3C-like proteinase (3CL-PRO)

>  <Target Source Organism According to Curator or DataSource>
Human SARS coronavirus

>  <IC50 (nM)>
82

>  <PMID>
WO2005113580A1

>  <Ligand HET ID in PDB>


>  <PDB ID(s) for Ligand-Target Complex>


>  <PubChem CID>


>  <PubChem SID>


>  <ChEMBL ID of Ligand>


>  <DrugBank ID of Ligand>


>  <ZINC ID of Ligand>


>  <PDB ID(s) of Target Chain>
1Q2W,1QZ8,1UJ1,1UK2,1UK3,1UK4,1UW7,1WOF,1Z1I,2A5A,2A5I,2A5K,2ACF,2AHM,2ALV,2AMD,2AMQ,2BX3,2BX4,2C3S,2D2D,2DUC,2FAV,2FE8,2FYG,2G9T,2GA6,2GDT,2GRI,2GT7,2GT8,2GTB,2GX4,2GZ7,2GZ8,2GZ9,2H2Z,2HOB,2HSX,2IDY,2JZF,2K7X,2K87,2KAF,2LIZ,2OP9,2OZK,2RNK,2V6N,2VJ1,2XYQ,2XYR,2XYV,2Z3C,2Z3D,2Z3E,2Z94,2Z9G,2Z9J,2Z9K,2Z9L,2ZU4,2ZU5,3D62,3E91,3E9S,3EA7,3EA8,3EBN,3IWM,3M3V,3MJ5,3R24,3SN8,3SNA,3SNB,3SNC,3SND,3SNE,3SZN,3TIT,3TIU,3TNS,3TNT,3V3M,3VB3,3VB4,3VB5,3VB6,3VB7,4MDS,4MM3,4OVZ,4OW0,5C8S,5C8T,5C8U,5F22,5N19,5N5O,5NFY,5TL6,5TL7,5Y3E,5Y3Q,6JYT,6LNQ,6LNY,6LO0,6NUR,6NUS,6W2A,6W79,6WCO,6XHL,6XHN,6XHO,6XMK,6XOA,7C2K,7JOY

>  <Smiles>
CC(C)C[C@@H](C(N[C@@H](C[C@H](CCN1)C1=O)C(COC(c(cc1)ccc1F)=O)=O)=O)NC(C1=NC(C=CC=C2OC)C2=C1)=O

$$$$
423441
Actelion Java MolfileCreator 2.0

  0  0  0  0  0  0              0 V3000
M  V30 BEGIN CTAB
M  V30 COUNTS 44 47 0 0 0
M  V30 BEGIN ATOM
M  V30 1 O 0.0 0.0 0.0 0
M  V30 2 C -0.7421 1.3311 0.0 0
M  V30 3 N -2.2382 1.5314 0.0 0
M  V30 4 C -0.1178 2.6976 0.0 0 CFG=1
M  V30 5 C -2.5327 3.0157 0.0 0
M  V30 6 C -1.2251 3.7343 0.0 0
M  V30 7 C 1.3429 2.9921 0.0 0
M  V30 8 C 1.8259 4.4176 0.0 0 CFG=2
M  V30 9 N 3.2867 4.7121 0.0 0
M  V30 10 C 0.8364 5.5603 0.0 0
M  V30 11 C 4.2526 3.5929 0.0 0
M  V30 12 O 1.3193 6.9857 0.0 0
M  V30 13 C -0.6479 5.2893 0.0 0
M  V30 14 O 3.7461 2.1911 0.0 0
M  V30 15 C 5.7134 3.8875 0.0 0 CFG=1
M  V30 16 O -1.6374 6.432 0.0 0
M  V30 17 N 6.6794 2.7683 0.0 0
M  V30 18 C 6.1964 5.3129 0.0 0
M  V30 19 C -3.1217 6.1611 0.0 0
M  V30 20 C 8.1401 3.0628 0.0 0
M  V30 21 C 5.2068 6.4556 0.0 0
M  V30 22 O -3.6283 4.7592 0.0 0
M  V30 23 C -4.1113 7.3037 0.0 0
M  V30 24 O 8.6231 4.4882 0.0 0
M  V30 25 C 9.1061 1.9437 0.0 0
M  V30 26 C 3.7225 6.1846 0.0 0
M  V30 27 C 5.6898 7.881 0.0 0
M  V30 28 C -5.5956 7.0328 0.0 0
M  V30 29 C -3.6283 8.7292 0.0 0
M  V30 30 N 10.5904 2.0851 0.0 0
M  V30 31 C 8.7527 0.4947 0.0 0
M  V30 32 C -6.5851 8.1755 0.0 0
M  V30 33 C -4.6178 9.8719 0.0 0
M  V30 34 C 11.1677 0.7185 0.0 0
M  V30 35 C 10.025 -0.2709 0.0 0
M  V30 36 C -6.1022 9.6009 0.0 0
M  V30 37 C 12.5695 0.2356 0.0 0
M  V30 38 C 10.2959 -1.7317 0.0 0
M  V30 39 C -7.0917 10.7436 0.0 0
M  V30 40 C 12.8405 -1.2251 0.0 0
M  V30 41 O 9.1533 -2.6976 0.0 0
M  V30 42 C 11.6978 -2.2146 0.0 0
M  V30 43 N -8.0812 11.8863 0.0 0
M  V30 44 C 9.4242 -4.1584 0.0 0
M  V30 END ATOM
M  V30 BEGIN BOND
M  V30 1 2 1 2
M  V30 2 1 2 3
M  V30 3 1 2 4
M  V30 4 1 3 5
M  V30 5 1 4 6
M  V30 6 1 4 7 CFG=1
M  V30 7 1 7 8
M  V30 8 1 8 9 CFG=1
M  V30 9 1 8 10
M  V30 10 1 9 11
M  V30 11 2 10 12
M  V30 12 1 10 13
M  V30 13 2 11 14
M  V30 14 1 11 15
M  V30 15 1 13 16
M  V30 16 1 15 17 CFG=3
M  V30 17 1 15 18
M  V30 18 1 16 19
M  V30 19 1 17 20
M  V30 20 1 18 21
M  V30 21 2 19 22
M  V30 22 1 19 23
M  V30 23 2 20 24
M  V30 24 1 20 25
M  V30 25 1 21 26
M  V30 26 1 21 27
M  V30 27 2 23 28
M  V30 28 1 23 29
M  V30 29 2 25 30
M  V30 30 1 25 31
M  V30 31 1 28 32
M  V30 32 2 29 33
M  V30 33 1 30 34
M  V30 34 2 31 35
M  V30 35 2 32 36
M  V30 36 1 34 37
M  V30 37 1 35 38
M  V30 38 1 36 39
M  V30 39 2 37 40
M  V30 40 1 38 41
M  V30 41 2 38 42
M  V30 42 3 39 43
M  V30 43 1 41 44
M  V30 44 1 5 6
M  V30 45 1 33 36
M  V30 46 1 34 35
M  V30 47 1 40 42
M  V30 END BOND
M  V30 BEGIN COLLECTION
M  V30 MDLV30/STEABS ATOMS=(3 4 8 15)
M  V30 END COLLECTION
M  V30 END CTAB
M  END
>  <Ligand InChI>
InChI=1S/C32H35N5O7/c1-18(2)13-25(37-31(41)26-15-22-23(35-26)5-4-6-28(22)43-3)30(40)36-24(14-21-11-12-34-29(21)39)27(38)17-44-32(42)20-9-7-19(16-33)8-10-20/h4-10,15,18,21,24-25,35H,11-14,17H2,1-3H3,(H,34,39)(H,36,40)(H,37,41)/t21-,24-,25-/m0/s1

>  <Ligand InChI Key>
ARFWPFMCFOCFND-TUSQITKMSA-N

>  <BindingDB MonomerID>
423441

>  <Target Name Assigned by Curator or DataSource>
3C-like proteinase (3CL-PRO)

>  <Target Source Organism According to Curator or DataSource>
Human SARS coronavirus

>  <IC50 (nM)>
53

>  <PMID>
WO2005113580A1

>  <Ligand HET ID in PDB>


>  <PDB ID(s) for Ligand-Target Complex>


>  <PubChem CID>


>  <PubChem SID>


>  <ChEMBL ID of Ligand>


>  <DrugBank ID of Ligand>


>  <ZINC ID of Ligand>


>  <PDB ID(s) of Target Chain>
1Q2W,1QZ8,1UJ1,1UK2,1UK3,1UK4,1UW7,1WOF,1Z1I,2A5A,2A5I,2A5K,2ACF,2AHM,2ALV,2AMD,2AMQ,2BX3,2BX4,2C3S,2D2D,2DUC,2FAV,2FE8,2FYG,2G9T,2GA6,2GDT,2GRI,2GT7,2GT8,2GTB,2GX4,2GZ7,2GZ8,2GZ9,2H2Z,2HOB,2HSX,2IDY,2JZF,2K7X,2K87,2KAF,2LIZ,2OP9,2OZK,2RNK,2V6N,2VJ1,2XYQ,2XYR,2XYV,2Z3C,2Z3D,2Z3E,2Z94,2Z9G,2Z9J,2Z9K,2Z9L,2ZU4,2ZU5,3D62,3E91,3E9S,3EA7,3EA8,3EBN,3IWM,3M3V,3MJ5,3R24,3SN8,3SNA,3SNB,3SNC,3SND,3SNE,3SZN,3TIT,3TIU,3TNS,3TNT,3V3M,3VB3,3VB4,3VB5,3VB6,3VB7,4MDS,4MM3,4OVZ,4OW0,5C8S,5C8T,5C8U,5F22,5N19,5N5O,5NFY,5TL6,5TL7,5Y3E,5Y3Q,6JYT,6LNQ,6LNY,6LO0,6NUR,6NUS,6W2A,6W79,6WCO,6XHL,6XHN,6XHO,6XMK,6XOA,7C2K,7JOY

>  <Smiles>
CC(C)C[C@@H](C(N[C@@H](C[C@H](CCN1)C1=O)C(COC(c(cc1)ccc1C#N)=O)=O)=O)NC(C1=NC(C=CC=C2OC)C2=C1)=O

$$$$
423442
Actelion Java MolfileCreator 2.0

  0  0  0  0  0  0              0 V3000
M  V30 BEGIN CTAB
M  V30 COUNTS 44 47 0 0 0
M  V30 BEGIN ATOM
M  V30 1 O 0.0 0.0 0.0 0
M  V30 2 C -0.7422 1.3312 0.0 0
M  V30 3 N -2.2384 1.5315 0.0 0
M  V30 4 C -0.1178 2.6979 0.0 0 CFG=1
M  V30 5 C -2.533 3.016 0.0 0
M  V30 6 C -1.2252 3.7347 0.0 0
M  V30 7 C 1.343 2.9924 0.0 0
M  V30 8 C 1.8261 4.418 0.0 0 CFG=2
M  V30 9 N 3.287 4.7125 0.0 0
M  V30 10 C 0.8364 5.5608 0.0 0
M  V30 11 C 4.253 3.5933 0.0 0
M  V30 12 O 1.3195 6.9863 0.0 0
M  V30 13 C -0.6479 5.2898 0.0 0
M  V30 14 O 3.7464 2.1913 0.0 0
M  V30 15 C 5.7139 3.8878 0.0 0 CFG=1
M  V30 16 O -1.6376 6.4326 0.0 0
M  V30 17 N 6.68 2.7686 0.0 0
M  V30 18 C 6.197 5.3134 0.0 0
M  V30 19 C -3.122 6.1616 0.0 0
M  V30 20 C 8.1409 3.0631 0.0 0
M  V30 21 C 5.2073 6.4562 0.0 0
M  V30 22 O -3.6286 4.7596 0.0 0
M  V30 23 C -4.1117 7.3044 0.0 0
M  V30 24 O 8.6239 4.4887 0.0 0
M  V30 25 C 9.107 1.9439 0.0 0
M  V30 26 C 3.7229 6.1852 0.0 0
M  V30 27 C 5.6904 7.8817 0.0 0
M  V30 28 C -5.5961 7.0335 0.0 0
M  V30 29 C -3.6286 8.73 0.0 0
M  V30 30 N 10.5914 2.0853 0.0 0
M  V30 31 C 8.7535 0.4948 0.0 0
M  V30 32 C -6.5858 8.1762 0.0 0
M  V30 33 C -4.6183 9.8728 0.0 0
M  V30 34 C 11.1687 0.7186 0.0 0
M  V30 35 C 10.0259 -0.2709 0.0 0
M  V30 36 C -6.1027 9.6018 0.0 0
M  V30 37 C 12.5707 0.2356 0.0 0
M  V30 38 C 10.2969 -1.7318 0.0 0
M  V30 39 O -7.0924 10.7446 0.0 0
M  V30 40 C 12.8417 -1.2252 0.0 0
M  V30 41 O 9.1541 -2.6979 0.0 0
M  V30 42 C 11.6989 -2.2149 0.0 0
M  V30 43 C -6.6093 12.1701 0.0 0
M  V30 44 C 9.4251 -4.1588 0.0 0
M  V30 END ATOM
M  V30 BEGIN BOND
M  V30 1 2 1 2
M  V30 2 1 2 3
M  V30 3 1 2 4
M  V30 4 1 3 5
M  V30 5 1 4 6
M  V30 6 1 4 7 CFG=1
M  V30 7 1 7 8
M  V30 8 1 8 9 CFG=1
M  V30 9 1 8 10
M  V30 10 1 9 11
M  V30 11 2 10 12
M  V30 12 1 10 13
M  V30 13 2 11 14
M  V30 14 1 11 15
M  V30 15 1 13 16
M  V30 16 1 15 17 CFG=3
M  V30 17 1 15 18
M  V30 18 1 16 19
M  V30 19 1 17 20
M  V30 20 1 18 21
M  V30 21 2 19 22
M  V30 22 1 19 23
M  V30 23 2 20 24
M  V30 24 1 20 25
M  V30 25 1 21 26
M  V30 26 1 21 27
M  V30 27 2 23 28
M  V30 28 1 23 29
M  V30 29 2 25 30
M  V30 30 1 25 31
M  V30 31 1 28 32
M  V30 32 2 29 33
M  V30 33 1 30 34
M  V30 34 2 31 35
M  V30 35 2 32 36
M  V30 36 1 34 37
M  V30 37 1 35 38
M  V30 38 1 36 39
M  V30 39 2 37 40
M  V30 40 1 38 41
M  V30 41 2 38 42
M  V30 42 1 39 43
M  V30 43 1 41 44
M  V30 44 1 5 6
M  V30 45 1 33 36
M  V30 46 1 34 35
M  V30 47 1 40 42
M  V30 END BOND
M  V30 BEGIN COLLECTION
M  V30 MDLV30/STEABS ATOMS=(3 4 8 15)
M  V30 END COLLECTION
M  V30 END CTAB
M  END
>  <Ligand InChI>
InChI=1S/C32H38N4O8/c1-18(2)14-25(36-31(40)26-16-22-23(34-26)6-5-7-28(22)43-4)30(39)35-24(15-20-12-13-33-29(20)38)27(37)17-44-32(41)19-8-10-21(42-3)11-9-19/h5-11,16,18,20,24-25,34H,12-15,17H2,1-4H3,(H,33,38)(H,35,39)(H,36,40)/t20-,24-,25-/m0/s1

>  <Ligand InChI Key>
OULBVRJYPFROGZ-OPXMRZJTSA-N

>  <BindingDB MonomerID>
423442

>  <Target Name Assigned by Curator or DataSource>
3C-like proteinase (3CL-PRO)

>  <Target Source Organism According to Curator or DataSource>
Human SARS coronavirus

>  <IC50 (nM)>
79

>  <PMID>
WO2005113580A1

>  <Ligand HET ID in PDB>


>  <PDB ID(s) for Ligand-Target Complex>


>  <PubChem CID>


>  <PubChem SID>


>  <ChEMBL ID of Ligand>


>  <DrugBank ID of Ligand>


>  <ZINC ID of Ligand>


>  <PDB ID(s) of Target Chain>
1Q2W,1QZ8,1UJ1,1UK2,1UK3,1UK4,1UW7,1WOF,1Z1I,2A5A,2A5I,2A5K,2ACF,2AHM,2ALV,2AMD,2AMQ,2BX3,2BX4,2C3S,2D2D,2DUC,2FAV,2FE8,2FYG,2G9T,2GA6,2GDT,2GRI,2GT7,2GT8,2GTB,2GX4,2GZ7,2GZ8,2GZ9,2H2Z,2HOB,2HSX,2IDY,2JZF,2K7X,2K87,2KAF,2LIZ,2OP9,2OZK,2RNK,2V6N,2VJ1,2XYQ,2XYR,2XYV,2Z3C,2Z3D,2Z3E,2Z94,2Z9G,2Z9J,2Z9K,2Z9L,2ZU4,2ZU5,3D62,3E91,3E9S,3EA7,3EA8,3EBN,3IWM,3M3V,3MJ5,3R24,3SN8,3SNA,3SNB,3SNC,3SND,3SNE,3SZN,3TIT,3TIU,3TNS,3TNT,3V3M,3VB3,3VB4,3VB5,3VB6,3VB7,4MDS,4MM3,4OVZ,4OW0,5C8S,5C8T,5C8U,5F22,5N19,5N5O,5NFY,5TL6,5TL7,5Y3E,5Y3Q,6JYT,6LNQ,6LNY,6LO0,6NUR,6NUS,6W2A,6W79,6WCO,6XHL,6XHN,6XHO,6XMK,6XOA,7C2K,7JOY

>  <Smiles>
CC(C)C[C@@H](C(N[C@@H](C[C@H](CCN1)C1=O)C(COC(c(cc1)ccc1OC)=O)=O)=O)NC(C1=NC(C=CC=C2OC)C2=C1)=O

$$$$
423445
Actelion Java MolfileCreator 2.0

  0  0  0  0  0  0              0 V3000
M  V30 BEGIN CTAB
M  V30 COUNTS 44 47 0 0 0
M  V30 BEGIN ATOM
M  V30 1 O 0.0 0.0 0.0 0
M  V30 2 C -0.7426 1.3319 0.0 0
M  V30 3 N -2.2396 1.5323 0.0 0
M  V30 4 C -0.1178 2.6993 0.0 0 CFG=1
M  V30 5 C -2.5342 3.0175 0.0 0
M  V30 6 C -1.2258 3.7366 0.0 0
M  V30 7 C 1.3437 2.994 0.0 0
M  V30 8 C 1.827 4.4202 0.0 0 CFG=2
M  V30 9 N 3.2886 4.7149 0.0 0
M  V30 10 C 0.8369 5.5636 0.0 0
M  V30 11 C 4.2552 3.5951 0.0 0
M  V30 12 O 1.3201 6.9899 0.0 0
M  V30 13 C -0.6483 5.2925 0.0 0
M  V30 14 O 3.7483 2.1924 0.0 0
M  V30 15 C 5.7168 3.8898 0.0 0 CFG=1
M  V30 16 O -1.6384 6.4359 0.0 0
M  V30 17 N 6.6834 2.77 0.0 0
M  V30 18 C 6.2001 5.3161 0.0 0
M  V30 19 C -3.1236 6.1648 0.0 0
M  V30 20 C 8.1451 3.0647 0.0 0
M  V30 21 C 5.21 6.4595 0.0 0
M  V30 22 O -3.6305 4.7621 0.0 0
M  V30 23 C -4.1138 7.3081 0.0 0
M  V30 24 O 8.6283 4.491 0.0 0
M  V30 25 C 9.1116 1.9449 0.0 0
M  V30 26 C 3.7248 6.1883 0.0 0
M  V30 27 C 5.6933 7.8857 0.0 0
M  V30 28 C -5.599 7.037 0.0 0
M  V30 29 C -3.6305 8.7344 0.0 0
M  V30 30 N 10.5968 2.0863 0.0 0
M  V30 31 C 8.758 0.495 0.0 0
M  V30 32 C -6.5891 8.1804 0.0 0
M  V30 33 C -6.1058 5.6343 0.0 0
M  V30 34 C -4.6206 9.8778 0.0 0
M  V30 35 C -2.1688 9.0291 0.0 0
M  V30 36 C 11.1744 0.719 0.0 0
M  V30 37 C 10.031 -0.2711 0.0 0
M  V30 38 C -6.1058 9.6067 0.0 0
M  V30 39 C 12.5771 0.2357 0.0 0
M  V30 40 C 10.3022 -1.7327 0.0 0
M  V30 41 C 12.8482 -1.2258 0.0 0
M  V30 42 O 9.1588 -2.6993 0.0 0
M  V30 43 C 11.7049 -2.216 0.0 0
M  V30 44 C 9.4299 -4.1609 0.0 0
M  V30 END ATOM
M  V30 BEGIN BOND
M  V30 1 2 1 2
M  V30 2 1 2 3
M  V30 3 1 2 4
M  V30 4 1 3 5
M  V30 5 1 4 6
M  V30 6 1 4 7 CFG=1
M  V30 7 1 7 8
M  V30 8 1 8 9 CFG=1
M  V30 9 1 8 10
M  V30 10 1 9 11
M  V30 11 2 10 12
M  V30 12 1 10 13
M  V30 13 2 11 14
M  V30 14 1 11 15
M  V30 15 1 13 16
M  V30 16 1 15 17 CFG=3
M  V30 17 1 15 18
M  V30 18 1 16 19
M  V30 19 1 17 20
M  V30 20 1 18 21
M  V30 21 2 19 22
M  V30 22 1 19 23
M  V30 23 2 20 24
M  V30 24 1 20 25
M  V30 25 1 21 26
M  V30 26 1 21 27
M  V30 27 2 23 28
M  V30 28 1 23 29
M  V30 29 2 25 30
M  V30 30 1 25 31
M  V30 31 1 28 32
M  V30 32 1 28 33
M  V30 33 2 29 34
M  V30 34 1 29 35
M  V30 35 1 30 36
M  V30 36 2 31 37
M  V30 37 2 32 38
M  V30 38 1 36 39
M  V30 39 1 37 40
M  V30 40 2 39 41
M  V30 41 1 40 42
M  V30 42 2 40 43
M  V30 43 1 42 44
M  V30 44 1 5 6
M  V30 45 1 34 38
M  V30 46 1 36 37
M  V30 47 1 41 43
M  V30 END BOND
M  V30 BEGIN COLLECTION
M  V30 MDLV30/STEABS ATOMS=(3 4 8 15)
M  V30 END COLLECTION
M  V30 END CTAB
M  END
>  <Ligand InChI>
InChI=1S/C33H40N4O7/c1-18(2)14-25(37-32(41)26-16-22-23(35-26)10-7-11-28(22)43-5)31(40)36-24(15-21-12-13-34-30(21)39)27(38)17-44-33(42)29-19(3)8-6-9-20(29)4/h6-11,16,18,21,24-25,35H,12-15,17H2,1-5H3,(H,34,39)(H,36,40)(H,37,41)/t21-,24-,25-/m0/s1

>  <Ligand InChI Key>
AZLMGXZYIYHCQZ-TUSQITKMSA-N

>  <BindingDB MonomerID>
423445

>  <Target Name Assigned by Curator or DataSource>
3C-like proteinase (3CL-PRO)

>  <Target Source Organism According to Curator or DataSource>
Human SARS coronavirus

>  <IC50 (nM)>
160

>  <PMID>
WO2005113580A1

>  <Ligand HET ID in PDB>


>  <PDB ID(s) for Ligand-Target Complex>


>  <PubChem CID>


>  <PubChem SID>


>  <ChEMBL ID of Ligand>


>  <DrugBank ID of Ligand>


>  <ZINC ID of Ligand>


>  <PDB ID(s) of Target Chain>
1Q2W,1QZ8,1UJ1,1UK2,1UK3,1UK4,1UW7,1WOF,1Z1I,2A5A,2A5I,2A5K,2ACF,2AHM,2ALV,2AMD,2AMQ,2BX3,2BX4,2C3S,2D2D,2DUC,2FAV,2FE8,2FYG,2G9T,2GA6,2GDT,2GRI,2GT7,2GT8,2GTB,2GX4,2GZ7,2GZ8,2GZ9,2H2Z,2HOB,2HSX,2IDY,2JZF,2K7X,2K87,2KAF,2LIZ,2OP9,2OZK,2RNK,2V6N,2VJ1,2XYQ,2XYR,2XYV,2Z3C,2Z3D,2Z3E,2Z94,2Z9G,2Z9J,2Z9K,2Z9L,2ZU4,2ZU5,3D62,3E91,3E9S,3EA7,3EA8,3EBN,3IWM,3M3V,3MJ5,3R24,3SN8,3SNA,3SNB,3SNC,3SND,3SNE,3SZN,3TIT,3TIU,3TNS,3TNT,3V3M,3VB3,3VB4,3VB5,3VB6,3VB7,4MDS,4MM3,4OVZ,4OW0,5C8S,5C8T,5C8U,5F22,5N19,5N5O,5NFY,5TL6,5TL7,5Y3E,5Y3Q,6JYT,6LNQ,6LNY,6LO0,6NUR,6NUS,6W2A,6W79,6WCO,6XHL,6XHN,6XHO,6XMK,6XOA,7C2K,7JOY

>  <Smiles>
CC(C)C[C@@H](C(N[C@@H](C[C@H](CCN1)C1=O)C(COC(c1c(C)cccc1C)=O)=O)=O)NC(C1=NC(C=CC=C2OC)C2=C1)=O

$$$$
423447
Actelion Java MolfileCreator 2.0

  0  0  0  0  0  0              0 V3000
M  V30 BEGIN CTAB
M  V30 COUNTS 46 49 0 0 0
M  V30 BEGIN ATOM
M  V30 1 O 0.0 0.0 0.0 0
M  V30 2 C -0.7424 1.3316 0.0 0
M  V30 3 N -2.2391 1.532 0.0 0
M  V30 4 C -0.1178 2.6987 0.0 0 CFG=1
M  V30 5 C -2.5337 3.0169 0.0 0
M  V30 6 C -1.2256 3.7358 0.0 0
M  V30 7 C 1.3434 2.9933 0.0 0
M  V30 8 C 1.8266 4.4193 0.0 0 CFG=2
M  V30 9 N 3.2879 4.7139 0.0 0
M  V30 10 C 0.8367 5.5624 0.0 0
M  V30 11 C 4.2543 3.5943 0.0 0
M  V30 12 O 1.3199 6.9884 0.0 0
M  V30 13 C -0.6481 5.2914 0.0 0
M  V30 14 O 3.7475 2.1919 0.0 0
M  V30 15 C 5.7156 3.889 0.0 0 CFG=1
M  V30 16 O -1.6381 6.4345 0.0 0
M  V30 17 N 6.682 2.7694 0.0 0
M  V30 18 C 6.1988 5.3149 0.0 0
M  V30 19 C -3.1229 6.1635 0.0 0
M  V30 20 C 8.1433 3.064 0.0 0
M  V30 21 C 5.2089 6.4581 0.0 0
M  V30 22 O -3.6297 4.761 0.0 0
M  V30 23 C -4.1129 7.3066 0.0 0
M  V30 24 O 8.6265 4.49 0.0 0
M  V30 25 C 9.1097 1.9445 0.0 0
M  V30 26 C 3.724 6.187 0.0 0
M  V30 27 C 5.6921 7.884 0.0 0
M  V30 28 C -5.5978 7.0355 0.0 0
M  V30 29 C -3.6297 8.7326 0.0 0
M  V30 30 N 10.5946 2.0859 0.0 0
M  V30 31 C 8.7561 0.4949 0.0 0
M  V30 32 O -6.1045 5.6331 0.0 0
M  V30 33 C -6.5877 8.1787 0.0 0
M  V30 34 O -2.1684 9.0272 0.0 0
M  V30 35 C -4.6196 9.8757 0.0 0
M  V30 36 C 11.172 0.7188 0.0 0
M  V30 37 C 10.0289 -0.271 0.0 0
M  V30 38 C -7.5894 5.3621 0.0 0
M  V30 39 C -6.1045 9.6046 0.0 0
M  V30 40 C -1.6852 10.4532 0.0 0
M  V30 41 C 12.5744 0.2356 0.0 0
M  V30 42 C 10.3 -1.7323 0.0 0
M  V30 43 C 12.8455 -1.2256 0.0 0
M  V30 44 O 9.1568 -2.6987 0.0 0
M  V30 45 C 11.7024 -2.2155 0.0 0
M  V30 46 C 9.4279 -4.16 0.0 0
M  V30 END ATOM
M  V30 BEGIN BOND
M  V30 1 2 1 2
M  V30 2 1 2 3
M  V30 3 1 2 4
M  V30 4 1 3 5
M  V30 5 1 4 6
M  V30 6 1 4 7 CFG=1
M  V30 7 1 7 8
M  V30 8 1 8 9 CFG=1
M  V30 9 1 8 10
M  V30 10 1 9 11
M  V30 11 2 10 12
M  V30 12 1 10 13
M  V30 13 2 11 14
M  V30 14 1 11 15
M  V30 15 1 13 16
M  V30 16 1 15 17 CFG=3
M  V30 17 1 15 18
M  V30 18 1 16 19
M  V30 19 1 17 20
M  V30 20 1 18 21
M  V30 21 2 19 22
M  V30 22 1 19 23
M  V30 23 2 20 24
M  V30 24 1 20 25
M  V30 25 1 21 26
M  V30 26 1 21 27
M  V30 27 2 23 28
M  V30 28 1 23 29
M  V30 29 2 25 30
M  V30 30 1 25 31
M  V30 31 1 28 32
M  V30 32 1 28 33
M  V30 33 1 29 34
M  V30 34 2 29 35
M  V30 35 1 30 36
M  V30 36 2 31 37
M  V30 37 1 32 38
M  V30 38 2 33 39
M  V30 39 1 34 40
M  V30 40 1 36 41
M  V30 41 1 37 42
M  V30 42 2 41 43
M  V30 43 1 42 44
M  V30 44 2 42 45
M  V30 45 1 44 46
M  V30 46 1 5 6
M  V30 47 1 35 39
M  V30 48 1 36 37
M  V30 49 1 43 45
M  V30 END BOND
M  V30 BEGIN COLLECTION
M  V30 MDLV30/STEABS ATOMS=(3 4 8 15)
M  V30 END COLLECTION
M  V30 END CTAB
M  END
>  <Ligand InChI>
InChI=1S/C33H40N4O9/c1-18(2)14-23(37-32(41)24-16-20-21(35-24)8-6-9-26(20)43-3)31(40)36-22(15-19-12-13-34-30(19)39)25(38)17-46-33(42)29-27(44-4)10-7-11-28(29)45-5/h6-11,16,18-19,22-23,35H,12-15,17H2,1-5H3,(H,34,39)(H,36,40)(H,37,41)/t19-,22-,23-/m0/s1

>  <Ligand InChI Key>
LYBPTTFNSHIUQU-VJBMBRPKSA-N

>  <BindingDB MonomerID>
423447

>  <Target Name Assigned by Curator or DataSource>
3C-like proteinase (3CL-PRO)

>  <Target Source Organism According to Curator or DataSource>
Human SARS coronavirus

>  <IC50 (nM)>
210

>  <PMID>
WO2005113580A1

>  <Ligand HET ID in PDB>


>  <PDB ID(s) for Ligand-Target Complex>


>  <PubChem CID>


>  <PubChem SID>


>  <ChEMBL ID of Ligand>


>  <DrugBank ID of Ligand>


>  <ZINC ID of Ligand>


>  <PDB ID(s) of Target Chain>
1Q2W,1QZ8,1UJ1,1UK2,1UK3,1UK4,1UW7,1WOF,1Z1I,2A5A,2A5I,2A5K,2ACF,2AHM,2ALV,2AMD,2AMQ,2BX3,2BX4,2C3S,2D2D,2DUC,2FAV,2FE8,2FYG,2G9T,2GA6,2GDT,2GRI,2GT7,2GT8,2GTB,2GX4,2GZ7,2GZ8,2GZ9,2H2Z,2HOB,2HSX,2IDY,2JZF,2K7X,2K87,2KAF,2LIZ,2OP9,2OZK,2RNK,2V6N,2VJ1,2XYQ,2XYR,2XYV,2Z3C,2Z3D,2Z3E,2Z94,2Z9G,2Z9J,2Z9K,2Z9L,2ZU4,2ZU5,3D62,3E91,3E9S,3EA7,3EA8,3EBN,3IWM,3M3V,3MJ5,3R24,3SN8,3SNA,3SNB,3SNC,3SND,3SNE,3SZN,3TIT,3TIU,3TNS,3TNT,3V3M,3VB3,3VB4,3VB5,3VB6,3VB7,4MDS,4MM3,4OVZ,4OW0,5C8S,5C8T,5C8U,5F22,5N19,5N5O,5NFY,5TL6,5TL7,5Y3E,5Y3Q,6JYT,6LNQ,6LNY,6LO0,6NUR,6NUS,6W2A,6W79,6WCO,6XHL,6XHN,6XHO,6XMK,6XOA,7C2K,7JOY

>  <Smiles>
CC(C)C[C@@H](C(N[C@@H](C[C@H](CCN1)C1=O)C(COC(c(c(OC)ccc1)c1OC)=O)=O)=O)NC(C1=NC(C=CC=C2OC)C2=C1)=O

$$$$
423450
Actelion Java MolfileCreator 2.0

  0  0  0  0  0  0              0 V3000
M  V30 BEGIN CTAB
M  V30 COUNTS 44 47 0 0 0
M  V30 BEGIN ATOM
M  V30 1 O 0.0 0.0 0.0 0
M  V30 2 C -0.7426 1.3319 0.0 0
M  V30 3 N -2.2396 1.5323 0.0 0
M  V30 4 C -0.1178 2.6993 0.0 0 CFG=1
M  V30 5 C -2.5343 3.0175 0.0 0
M  V30 6 C -1.2258 3.7366 0.0 0
M  V30 7 C 1.3437 2.994 0.0 0
M  V30 8 C 1.827 4.4203 0.0 0 CFG=2
M  V30 9 N 3.2887 4.7149 0.0 0
M  V30 10 C 0.8369 5.5636 0.0 0
M  V30 11 C 4.2552 3.5951 0.0 0
M  V30 12 O 1.3201 6.9899 0.0 0
M  V30 13 C -0.6483 5.2925 0.0 0
M  V30 14 O 3.7484 2.1924 0.0 0
M  V30 15 C 5.7169 3.8898 0.0 0 CFG=1
M  V30 16 N -1.6384 6.4359 0.0 0
M  V30 17 N 6.6835 2.77 0.0 0
M  V30 18 C 6.2002 5.3161 0.0 0
M  V30 19 C -3.1236 6.1648 0.0 0
M  V30 20 C 8.1451 3.0647 0.0 0
M  V30 21 C 5.21 6.4595 0.0 0
M  V30 22 O -3.6305 4.7621 0.0 0
M  V30 23 C -4.1138 7.3082 0.0 0
M  V30 24 O 8.6284 4.491 0.0 0
M  V30 25 C 9.1117 1.9449 0.0 0
M  V30 26 C 3.7248 6.1884 0.0 0
M  V30 27 C 5.6933 7.8858 0.0 0
M  V30 28 C -3.6305 8.7345 0.0 0
M  V30 29 C -5.599 7.0371 0.0 0
M  V30 30 N 10.5969 2.0863 0.0 0
M  V30 31 C 8.7581 0.495 0.0 0
M  V30 32 C -2.1688 9.0292 0.0 0
M  V30 33 C -4.6206 9.8779 0.0 0
M  V30 34 C -6.5892 8.1805 0.0 0
M  V30 35 C 11.1745 0.719 0.0 0
M  V30 36 C 10.0311 -0.2711 0.0 0
M  V30 37 N -0.7072 9.3239 0.0 0
M  V30 38 C -6.1059 9.6067 0.0 0
M  V30 39 C 12.5772 0.2357 0.0 0
M  V30 40 C 10.3022 -1.7327 0.0 0
M  V30 41 C 12.8483 -1.2258 0.0 0
M  V30 42 O 9.1588 -2.6993 0.0 0
M  V30 43 C 11.7049 -2.216 0.0 0
M  V30 44 C 9.4299 -4.1609 0.0 0
M  V30 END ATOM
M  V30 BEGIN BOND
M  V30 1 2 1 2
M  V30 2 1 2 3
M  V30 3 1 2 4
M  V30 4 1 3 5
M  V30 5 1 4 6
M  V30 6 1 4 7 CFG=1
M  V30 7 1 7 8
M  V30 8 1 8 9 CFG=1
M  V30 9 1 8 10
M  V30 10 1 9 11
M  V30 11 2 10 12
M  V30 12 1 10 13
M  V30 13 2 11 14
M  V30 14 1 11 15
M  V30 15 1 13 16
M  V30 16 1 15 17 CFG=3
M  V30 17 1 15 18
M  V30 18 1 16 19
M  V30 19 1 17 20
M  V30 20 1 18 21
M  V30 21 2 19 22
M  V30 22 1 19 23
M  V30 23 2 20 24
M  V30 24 1 20 25
M  V30 25 1 21 26
M  V30 26 1 21 27
M  V30 27 2 23 28
M  V30 28 1 23 29
M  V30 29 2 25 30
M  V30 30 1 25 31
M  V30 31 1 28 32
M  V30 32 1 28 33
M  V30 33 2 29 34
M  V30 34 1 30 35
M  V30 35 2 31 36
M  V30 36 3 32 37
M  V30 37 2 33 38
M  V30 38 1 35 39
M  V30 39 1 36 40
M  V30 40 2 39 41
M  V30 41 1 40 42
M  V30 42 2 40 43
M  V30 43 1 42 44
M  V30 44 1 5 6
M  V30 45 1 34 38
M  V30 46 1 35 36
M  V30 47 1 41 43
M  V30 END BOND
M  V30 BEGIN COLLECTION
M  V30 MDLV30/STEABS ATOMS=(3 4 8 15)
M  V30 END COLLECTION
M  V30 END CTAB
M  END
>  <Ligand InChI>
InChI=1S/C32H36N6O6/c1-18(2)13-25(38-32(43)26-15-22-23(36-26)9-6-10-28(22)44-3)31(42)37-24(14-19-11-12-34-29(19)40)27(39)17-35-30(41)21-8-5-4-7-20(21)16-33/h4-10,15,18-19,24-25,36H,11-14,17H2,1-3H3,(H,34,40)(H,35,41)(H,37,42)(H,38,43)/t19-,24-,25-/m0/s1

>  <Ligand InChI Key>
HGKFLGSHQSQPHE-LQGLAIQGSA-N

>  <BindingDB MonomerID>
423450

>  <Target Name Assigned by Curator or DataSource>
3C-like proteinase (3CL-PRO)

>  <Target Source Organism According to Curator or DataSource>
Human SARS coronavirus

>  <IC50 (nM)>
17

>  <PMID>
WO2005113580A1

>  <Ligand HET ID in PDB>


>  <PDB ID(s) for Ligand-Target Complex>


>  <PubChem CID>


>  <PubChem SID>


>  <ChEMBL ID of Ligand>


>  <DrugBank ID of Ligand>


>  <ZINC ID of Ligand>


>  <PDB ID(s) of Target Chain>
1Q2W,1QZ8,1UJ1,1UK2,1UK3,1UK4,1UW7,1WOF,1Z1I,2A5A,2A5I,2A5K,2ACF,2AHM,2ALV,2AMD,2AMQ,2BX3,2BX4,2C3S,2D2D,2DUC,2FAV,2FE8,2FYG,2G9T,2GA6,2GDT,2GRI,2GT7,2GT8,2GTB,2GX4,2GZ7,2GZ8,2GZ9,2H2Z,2HOB,2HSX,2IDY,2JZF,2K7X,2K87,2KAF,2LIZ,2OP9,2OZK,2RNK,2V6N,2VJ1,2XYQ,2XYR,2XYV,2Z3C,2Z3D,2Z3E,2Z94,2Z9G,2Z9J,2Z9K,2Z9L,2ZU4,2ZU5,3D62,3E91,3E9S,3EA7,3EA8,3EBN,3IWM,3M3V,3MJ5,3R24,3SN8,3SNA,3SNB,3SNC,3SND,3SNE,3SZN,3TIT,3TIU,3TNS,3TNT,3V3M,3VB3,3VB4,3VB5,3VB6,3VB7,4MDS,4MM3,4OVZ,4OW0,5C8S,5C8T,5C8U,5F22,5N19,5N5O,5NFY,5TL6,5TL7,5Y3E,5Y3Q,6JYT,6LNQ,6LNY,6LO0,6NUR,6NUS,6W2A,6W79,6WCO,6XHL,6XHN,6XHO,6XMK,6XOA,7C2K,7JOY

>  <Smiles>
CC(C)C[C@@H](C(N[C@@H](C[C@H](CCN1)C1=O)C(CNC(c(cccc1)c1C#N)=O)=O)=O)NC(C1=NC(C=CC=C2OC)C2=C1)=O

$$$$
423451
Actelion Java MolfileCreator 2.0

  0  0  0  0  0  0              0 V3000
M  V30 BEGIN CTAB
M  V30 COUNTS 34 35 0 0 0
M  V30 BEGIN ATOM
M  V30 1 Cl 0.0 0.0 0.0 0
M  V30 2 C 0.4805 1.4298 0.0 0
M  V30 3 C 1.9454 1.7228 0.0 0
M  V30 4 C -0.5156 2.5783 0.0 0
M  V30 5 C 2.4259 3.1526 0.0 0
M  V30 6 C 2.9182 0.5977 0.0 0
M  V30 7 C -0.0351 4.0081 0.0 0
M  V30 8 Cl 3.8909 3.4456 0.0 0
M  V30 9 C 1.4298 4.3011 0.0 0
M  V30 10 O 2.4142 -0.8086 0.0 0
M  V30 11 O 4.3831 0.8907 0.0 0
M  V30 12 C 5.3559 -0.2343 0.0 0
M  V30 13 C 6.8208 0.0585 0.0 0
M  V30 14 O 7.3014 1.4884 0.0 0
M  V30 15 C 7.7936 -1.0664 0.0 0 CFG=1
M  V30 16 N 9.2586 -0.7735 0.0 0
M  V30 17 C 7.2896 -2.4728 0.0 0
M  V30 18 C 10.2313 -1.8986 0.0 0
M  V30 19 C 5.8012 -2.7424 0.0 0 CFG=1
M  V30 20 O 9.7273 -3.3049 0.0 0
M  V30 21 C 11.6963 -1.6056 0.0 0 CFG=1
M  V30 22 C 5.1566 -4.0901 0.0 0
M  V30 23 C 4.6996 -1.711 0.0 0
M  V30 24 N 12.1768 -0.1757 0.0 0
M  V30 25 C 12.669 -2.7307 0.0 0
M  V30 26 O 5.8715 -5.391 0.0 0
M  V30 27 N 3.6565 -3.8909 0.0 0
M  V30 28 C 3.3752 -2.4259 0.0 0
M  V30 29 C 11.1806 0.9727 0.0 0
M  V30 30 C 14.134 -2.4377 0.0 0
M  V30 31 O 9.6922 0.7031 0.0 0
M  V30 32 C 11.6611 2.4025 0.0 0
M  V30 33 C 15.1067 -3.5628 0.0 0
M  V30 34 C 14.6145 -1.0078 0.0 0
M  V30 END ATOM
M  V30 BEGIN BOND
M  V30 1 1 1 2
M  V30 2 2 2 3
M  V30 3 1 2 4
M  V30 4 1 3 5
M  V30 5 1 3 6
M  V30 6 2 4 7
M  V30 7 1 5 8
M  V30 8 2 5 9
M  V30 9 2 6 10
M  V30 10 1 6 11
M  V30 11 1 11 12
M  V30 12 1 12 13
M  V30 13 2 13 14
M  V30 14 1 13 15
M  V30 15 1 15 16 CFG=1
M  V30 16 1 15 17
M  V30 17 1 16 18
M  V30 18 1 19 17 CFG=1
M  V30 19 2 18 20
M  V30 20 1 18 21
M  V30 21 1 19 22
M  V30 22 1 19 23
M  V30 23 1 21 24 CFG=1
M  V30 24 1 21 25
M  V30 25 2 22 26
M  V30 26 1 22 27
M  V30 27 1 23 28
M  V30 28 1 24 29
M  V30 29 1 25 30
M  V30 30 2 29 31
M  V30 31 1 29 32
M  V30 32 1 30 33
M  V30 33 1 30 34
M  V30 34 1 7 9
M  V30 35 1 27 28
M  V30 END BOND
M  V30 BEGIN COLLECTION
M  V30 MDLV30/STEABS ATOMS=(3 15 19 21)
M  V30 END COLLECTION
M  V30 END CTAB
M  END
>  <Ligand InChI>
InChI=1S/C23H29Cl2N3O6/c1-12(2)9-18(27-13(3)29)22(32)28-17(10-14-7-8-26-21(14)31)19(30)11-34-23(33)20-15(24)5-4-6-16(20)25/h4-6,12,14,17-18H,7-11H2,1-3H3,(H,26,31)(H,27,29)(H,28,32)/t14-,17-,18-/m0/s1

>  <Ligand InChI Key>
SXXAXVNCBPVURL-WBAXXEDZSA-N

>  <BindingDB MonomerID>
423451

>  <Target Name Assigned by Curator or DataSource>
3C-like proteinase (3CL-PRO)

>  <Target Source Organism According to Curator or DataSource>
Human SARS coronavirus

>  <IC50 (nM)>
1280

>  <PMID>
WO2005113580A1

>  <Ligand HET ID in PDB>


>  <PDB ID(s) for Ligand-Target Complex>


>  <PubChem CID>


>  <PubChem SID>


>  <ChEMBL ID of Ligand>


>  <DrugBank ID of Ligand>


>  <ZINC ID of Ligand>


>  <PDB ID(s) of Target Chain>
1Q2W,1QZ8,1UJ1,1UK2,1UK3,1UK4,1UW7,1WOF,1Z1I,2A5A,2A5I,2A5K,2ACF,2AHM,2ALV,2AMD,2AMQ,2BX3,2BX4,2C3S,2D2D,2DUC,2FAV,2FE8,2FYG,2G9T,2GA6,2GDT,2GRI,2GT7,2GT8,2GTB,2GX4,2GZ7,2GZ8,2GZ9,2H2Z,2HOB,2HSX,2IDY,2JZF,2K7X,2K87,2KAF,2LIZ,2OP9,2OZK,2RNK,2V6N,2VJ1,2XYQ,2XYR,2XYV,2Z3C,2Z3D,2Z3E,2Z94,2Z9G,2Z9J,2Z9K,2Z9L,2ZU4,2ZU5,3D62,3E91,3E9S,3EA7,3EA8,3EBN,3IWM,3M3V,3MJ5,3R24,3SN8,3SNA,3SNB,3SNC,3SND,3SNE,3SZN,3TIT,3TIU,3TNS,3TNT,3V3M,3VB3,3VB4,3VB5,3VB6,3VB7,4MDS,4MM3,4OVZ,4OW0,5C8S,5C8T,5C8U,5F22,5N19,5N5O,5NFY,5TL6,5TL7,5Y3E,5Y3Q,6JYT,6LNQ,6LNY,6LO0,6NUR,6NUS,6W2A,6W79,6WCO,6XHL,6XHN,6XHO,6XMK,6XOA,7C2K,7JOY

>  <Smiles>
CC(C)C[C@@H](C(N[C@@H](C[C@H](CCN1)C1=O)C(COC(c(c(Cl)ccc1)c1Cl)=O)=O)=O)NC(C)=O

$$$$
423453
Actelion Java MolfileCreator 2.0

  0  0  0  0  0  0              0 V3000
M  V30 BEGIN CTAB
M  V30 COUNTS 36 38 0 0 0
M  V30 BEGIN ATOM
M  V30 1 O 0.0 0.0 0.0 0
M  V30 2 C -0.4727 1.442 0.0 0
M  V30 3 N -1.9148 1.9148 0.0 0
M  V30 4 C 0.4018 2.6712 0.0 0 CFG=1
M  V30 5 C -1.9266 3.4277 0.0 0
M  V30 6 C -0.4964 3.9005 0.0 0
M  V30 7 C 1.8911 2.6831 0.0 0
M  V30 8 C 2.6358 3.9951 0.0 0 CFG=2
M  V30 9 N 4.1251 4.0069 0.0 0
M  V30 10 C 1.8675 5.3071 0.0 0
M  V30 11 C 4.8579 2.7185 0.0 0
M  V30 12 O 2.6121 6.6191 0.0 0
M  V30 13 C 0.3545 5.3189 0.0 0
M  V30 14 O 4.1014 1.4302 0.0 0
M  V30 15 C 6.3472 2.7303 0.0 0 CFG=1
M  V30 16 N -0.4018 6.6309 0.0 0
M  V30 17 N 7.08 1.442 0.0 0
M  V30 18 C 7.08 4.0423 0.0 0
M  V30 19 N -1.9148 6.6427 0.0 0 CHG=1
M  V30 20 C 8.5693 1.4538 0.0 0
M  V30 21 C 6.3236 5.3543 0.0 0
M  V30 22 N -3.4277 6.6545 0.0 0 CHG=-1
M  V30 23 O 9.3022 2.7658 0.0 0
M  V30 24 C 9.3022 0.1654 0.0 0
M  V30 25 C 4.8106 5.3662 0.0 0
M  V30 26 C 7.0564 6.6663 0.0 0
M  V30 27 N 10.7797 0.0236 0.0 0
M  V30 28 C 8.6757 -1.1938 0.0 0
M  V30 29 C 11.0751 -1.4302 0.0 0
M  V30 30 C 9.775 -2.1866 0.0 0
M  V30 31 C 12.3635 -2.163 0.0 0
M  V30 32 C 9.7631 -3.6759 0.0 0
M  V30 33 C 12.3517 -3.6523 0.0 0
M  V30 34 O 8.4511 -4.4088 0.0 0
M  V30 35 C 11.0515 -4.4088 0.0 0
M  V30 36 C 8.4393 -5.8981 0.0 0
M  V30 END ATOM
M  V30 BEGIN BOND
M  V30 1 2 1 2
M  V30 2 1 2 3
M  V30 3 1 2 4
M  V30 4 1 3 5
M  V30 5 1 4 6
M  V30 6 1 4 7 CFG=1
M  V30 7 1 7 8
M  V30 8 1 8 9 CFG=1
M  V30 9 1 8 10
M  V30 10 1 9 11
M  V30 11 2 10 12
M  V30 12 1 10 13
M  V30 13 2 11 14
M  V30 14 1 11 15
M  V30 15 1 13 16
M  V30 16 1 15 17 CFG=3
M  V30 17 1 15 18
M  V30 18 2 16 19
M  V30 19 1 17 20
M  V30 20 1 18 21
M  V30 21 2 19 22
M  V30 22 2 20 23
M  V30 23 1 20 24
M  V30 24 1 21 25
M  V30 25 1 21 26
M  V30 26 2 24 27
M  V30 27 1 24 28
M  V30 28 1 27 29
M  V30 29 2 28 30
M  V30 30 1 29 31
M  V30 31 1 30 32
M  V30 32 2 31 33
M  V30 33 1 32 34
M  V30 34 2 32 35
M  V30 35 1 34 36
M  V30 36 1 5 6
M  V30 37 1 29 30
M  V30 38 1 33 35
M  V30 END BOND
M  V30 BEGIN COLLECTION
M  V30 MDLV30/STEABS ATOMS=(3 4 8 15)
M  V30 END COLLECTION
M  V30 END CTAB
M  END
>  <Ligand InChI>
InChI=1S/C24H31N7O5/c1-13(2)9-18(30-24(35)19-11-15-16(28-19)5-4-6-21(15)36-3)23(34)29-17(20(32)12-27-31-25)10-14-7-8-26-22(14)33/h4-6,11,13-14,17-18,28H,7-10,12H2,1-3H3,(H,26,33)(H,29,34)(H,30,35)/t14-,17-,18-/m0/s1

>  <Ligand InChI Key>
GPNHVDAGFNFUEZ-WBAXXEDZSA-N

>  <BindingDB MonomerID>
423453

>  <Target Name Assigned by Curator or DataSource>
3C-like proteinase (3CL-PRO)

>  <Target Source Organism According to Curator or DataSource>
Human SARS coronavirus

>  <IC50 (nM)>
101

>  <PMID>
WO2005113580A1

>  <Ligand HET ID in PDB>


>  <PDB ID(s) for Ligand-Target Complex>


>  <PubChem CID>


>  <PubChem SID>


>  <ChEMBL ID of Ligand>


>  <DrugBank ID of Ligand>


>  <ZINC ID of Ligand>


>  <PDB ID(s) of Target Chain>
1Q2W,1QZ8,1UJ1,1UK2,1UK3,1UK4,1UW7,1WOF,1Z1I,2A5A,2A5I,2A5K,2ACF,2AHM,2ALV,2AMD,2AMQ,2BX3,2BX4,2C3S,2D2D,2DUC,2FAV,2FE8,2FYG,2G9T,2GA6,2GDT,2GRI,2GT7,2GT8,2GTB,2GX4,2GZ7,2GZ8,2GZ9,2H2Z,2HOB,2HSX,2IDY,2JZF,2K7X,2K87,2KAF,2LIZ,2OP9,2OZK,2RNK,2V6N,2VJ1,2XYQ,2XYR,2XYV,2Z3C,2Z3D,2Z3E,2Z94,2Z9G,2Z9J,2Z9K,2Z9L,2ZU4,2ZU5,3D62,3E91,3E9S,3EA7,3EA8,3EBN,3IWM,3M3V,3MJ5,3R24,3SN8,3SNA,3SNB,3SNC,3SND,3SNE,3SZN,3TIT,3TIU,3TNS,3TNT,3V3M,3VB3,3VB4,3VB5,3VB6,3VB7,4MDS,4MM3,4OVZ,4OW0,5C8S,5C8T,5C8U,5F22,5N19,5N5O,5NFY,5TL6,5TL7,5Y3E,5Y3Q,6JYT,6LNQ,6LNY,6LO0,6NUR,6NUS,6W2A,6W79,6WCO,6XHL,6XHN,6XHO,6XMK,6XOA,7C2K,7JOY

>  <Smiles>
CC(C)C[C@@H](C(N[C@@H](C[C@H](CCN1)C1=O)C(CN=[N+]=[N-])=O)=O)NC(C1=NC(C=CC=C2OC)C2=C1)=O

$$$$
423454
Actelion Java MolfileCreator 2.0

  0  0  0  0  0  0              0 V3000
M  V30 BEGIN CTAB
M  V30 COUNTS 37 39 0 0 0
M  V30 BEGIN ATOM
M  V30 1 O 0.0 0.0 0.0 0
M  V30 2 C -1.3313 -0.6951 0.0 0
M  V30 3 N -2.6979 -0.0235 0.0 0
M  V30 4 C -1.5433 -2.1678 0.0 0 CFG=1
M  V30 5 C -3.7465 -1.0956 0.0 0
M  V30 6 C -3.0278 -2.4152 0.0 0
M  V30 7 C -0.4712 -3.1928 0.0 0
M  V30 8 C -0.8482 -4.6419 0.0 0 CFG=2
M  V30 9 N 0.2238 -5.6669 0.0 0
M  V30 10 C -2.2974 -5.0425 0.0 0
M  V30 11 C 1.6494 -5.2428 0.0 0
M  V30 12 O -2.6744 -6.4916 0.0 0
M  V30 13 C -3.3931 -3.9939 0.0 0
M  V30 14 O 2.0028 -3.7701 0.0 0
M  V30 15 C 2.7215 -6.2678 0.0 0 CFG=1
M  V30 16 N -4.8422 -4.3945 0.0 0
M  V30 17 N 2.3445 -7.7169 0.0 0
M  V30 18 C 4.1471 -5.8436 0.0 0
M  V30 19 C -5.9379 -3.3459 0.0 0
M  V30 20 C 0.8954 -8.1175 0.0 0
M  V30 21 C 4.5005 -4.3709 0.0 0
M  V30 22 O -5.5844 -1.8732 0.0 0
M  V30 23 C -7.387 -3.7465 0.0 0
M  V30 24 O -0.2002 -7.0689 0.0 0
M  V30 25 C 0.5183 -9.5666 0.0 0
M  V30 26 C 3.4048 -3.3224 0.0 0
M  V30 27 C 5.9261 -3.9468 0.0 0
M  V30 28 N 1.4727 -10.6976 0.0 0
M  V30 29 C -0.8836 -10.1203 0.0 0
M  V30 30 C 0.6715 -11.9583 0.0 0
M  V30 31 C -0.7893 -11.6048 0.0 0
M  V30 32 C 1.0721 -13.3839 0.0 0
M  V30 33 C -1.8379 -12.677 0.0 0
M  V30 34 C 0.0235 -14.456 0.0 0
M  V30 35 O -3.3106 -12.2999 0.0 0
M  V30 36 C -1.4373 -14.1025 0.0 0
M  V30 37 C -4.3591 -13.3721 0.0 0
M  V30 END ATOM
M  V30 BEGIN BOND
M  V30 1 2 1 2
M  V30 2 1 2 3
M  V30 3 1 2 4
M  V30 4 1 3 5
M  V30 5 1 4 6
M  V30 6 1 4 7 CFG=3
M  V30 7 1 7 8
M  V30 8 1 8 9 CFG=3
M  V30 9 1 8 10
M  V30 10 1 9 11
M  V30 11 2 10 12
M  V30 12 1 10 13
M  V30 13 2 11 14
M  V30 14 1 11 15
M  V30 15 1 13 16
M  V30 16 1 15 17 CFG=3
M  V30 17 1 15 18
M  V30 18 1 16 19
M  V30 19 1 17 20
M  V30 20 1 18 21
M  V30 21 2 19 22
M  V30 22 1 19 23
M  V30 23 2 20 24
M  V30 24 1 20 25
M  V30 25 1 21 26
M  V30 26 1 21 27
M  V30 27 2 25 28
M  V30 28 1 25 29
M  V30 29 1 28 30
M  V30 30 2 29 31
M  V30 31 1 30 32
M  V30 32 1 31 33
M  V30 33 2 32 34
M  V30 34 1 33 35
M  V30 35 2 33 36
M  V30 36 1 35 37
M  V30 37 1 5 6
M  V30 38 1 30 31
M  V30 39 1 34 36
M  V30 END BOND
M  V30 BEGIN COLLECTION
M  V30 MDLV30/STEABS ATOMS=(3 4 8 15)
M  V30 END COLLECTION
M  V30 END CTAB
M  END
>  <Ligand InChI>
InChI=1S/C26H35N5O6/c1-14(2)10-20(31-26(36)21-12-17-18(29-21)6-5-7-23(17)37-4)25(35)30-19(22(33)13-28-15(3)32)11-16-8-9-27-24(16)34/h5-7,12,14,16,19-20,29H,8-11,13H2,1-4H3,(H,27,34)(H,28,32)(H,30,35)(H,31,36)/t16-,19-,20-/m0/s1

>  <Ligand InChI Key>
YDNCMHMNEYXCAW-VDGAXYAQSA-N

>  <BindingDB MonomerID>
423454

>  <Target Name Assigned by Curator or DataSource>
3C-like proteinase (3CL-PRO)

>  <Target Source Organism According to Curator or DataSource>
Human SARS coronavirus

>  <IC50 (nM)>
2650

>  <PMID>
WO2005113580A1

>  <Ligand HET ID in PDB>


>  <PDB ID(s) for Ligand-Target Complex>


>  <PubChem CID>


>  <PubChem SID>


>  <ChEMBL ID of Ligand>


>  <DrugBank ID of Ligand>


>  <ZINC ID of Ligand>


>  <PDB ID(s) of Target Chain>
1Q2W,1QZ8,1UJ1,1UK2,1UK3,1UK4,1UW7,1WOF,1Z1I,2A5A,2A5I,2A5K,2ACF,2AHM,2ALV,2AMD,2AMQ,2BX3,2BX4,2C3S,2D2D,2DUC,2FAV,2FE8,2FYG,2G9T,2GA6,2GDT,2GRI,2GT7,2GT8,2GTB,2GX4,2GZ7,2GZ8,2GZ9,2H2Z,2HOB,2HSX,2IDY,2JZF,2K7X,2K87,2KAF,2LIZ,2OP9,2OZK,2RNK,2V6N,2VJ1,2XYQ,2XYR,2XYV,2Z3C,2Z3D,2Z3E,2Z94,2Z9G,2Z9J,2Z9K,2Z9L,2ZU4,2ZU5,3D62,3E91,3E9S,3EA7,3EA8,3EBN,3IWM,3M3V,3MJ5,3R24,3SN8,3SNA,3SNB,3SNC,3SND,3SNE,3SZN,3TIT,3TIU,3TNS,3TNT,3V3M,3VB3,3VB4,3VB5,3VB6,3VB7,4MDS,4MM3,4OVZ,4OW0,5C8S,5C8T,5C8U,5F22,5N19,5N5O,5NFY,5TL6,5TL7,5Y3E,5Y3Q,6JYT,6LNQ,6LNY,6LO0,6NUR,6NUS,6W2A,6W79,6WCO,6XHL,6XHN,6XHO,6XMK,6XOA,7C2K,7JOY

>  <Smiles>
CC(C)C[C@@H](C(N[C@@H](C[C@H](CCN1)C1=O)C(CNC(C)=O)=O)=O)NC(C1=NC(C=CC=C2OC)C2=C1)=O

$$$$
423455
Actelion Java MolfileCreator 2.0

  0  0  0  0  0  0              0 V3000
M  V30 BEGIN CTAB
M  V30 COUNTS 38 40 0 0 0
M  V30 BEGIN ATOM
M  V30 1 S 0.0 0.0 0.0 0
M  V30 2 O -0.0118 1.5161 0.0 0
M  V30 3 O -0.0118 -1.4924 0.0 0
M  V30 4 N 1.4924 0.0118 0.0 0
M  V30 5 C -1.5161 0.0118 0.0 0
M  V30 6 C 2.2267 -1.2792 0.0 0
M  V30 7 C 3.7192 -1.2673 0.0 0
M  V30 8 O 4.4654 0.0473 0.0 0
M  V30 9 C 4.4654 -2.5584 0.0 0 CFG=1
M  V30 10 N 5.9578 -2.5465 0.0 0
M  V30 11 C 3.6955 -3.8494 0.0 0
M  V30 12 C 6.6922 -3.8376 0.0 0
M  V30 13 C 2.1794 -3.8376 0.0 0 CFG=1
M  V30 14 O 5.9341 -5.1287 0.0 0
M  V30 15 C 8.1846 -3.8258 0.0 0 CFG=1
M  V30 16 C 1.2792 -5.0458 0.0 0
M  V30 17 C 1.2792 -2.6058 0.0 0
M  V30 18 N 8.9189 -5.1168 0.0 0
M  V30 19 C 8.9189 -2.511 0.0 0
M  V30 20 O 1.7293 -6.4671 0.0 0
M  V30 21 N -0.1658 -4.572 0.0 0
M  V30 22 C -0.1658 -3.0559 0.0 0
M  V30 23 C 10.4114 -5.105 0.0 0
M  V30 24 C 8.1609 -1.1963 0.0 0
M  V30 25 O 11.1457 -3.7902 0.0 0
M  V30 26 C 11.1457 -6.396 0.0 0
M  V30 27 C 6.6448 -1.1844 0.0 0
M  V30 28 C 8.8952 0.1184 0.0 0
M  V30 29 N 12.6263 -6.5382 0.0 0
M  V30 30 C 10.518 -7.7582 0.0 0
M  V30 31 C 12.9224 -7.9951 0.0 0
M  V30 32 C 11.6195 -8.7531 0.0 0
M  V30 33 C 14.2135 -8.7294 0.0 0
M  V30 34 C 11.6077 -10.2455 0.0 0
M  V30 35 C 14.2016 -10.2218 0.0 0
M  V30 36 O 10.2929 -10.9799 0.0 0
M  V30 37 C 12.8987 -10.9799 0.0 0
M  V30 38 C 10.2811 -12.4723 0.0 0
M  V30 END ATOM
M  V30 BEGIN BOND
M  V30 1 2 1 2
M  V30 2 2 1 3
M  V30 3 1 1 4
M  V30 4 1 1 5
M  V30 5 1 4 6
M  V30 6 1 6 7
M  V30 7 2 7 8
M  V30 8 1 7 9
M  V30 9 1 9 10 CFG=1
M  V30 10 1 9 11
M  V30 11 1 10 12
M  V30 12 1 13 11 CFG=1
M  V30 13 2 12 14
M  V30 14 1 12 15
M  V30 15 1 13 16
M  V30 16 1 13 17
M  V30 17 1 15 18 CFG=3
M  V30 18 1 15 19
M  V30 19 2 16 20
M  V30 20 1 16 21
M  V30 21 1 17 22
M  V30 22 1 18 23
M  V30 23 1 19 24
M  V30 24 2 23 25
M  V30 25 1 23 26
M  V30 26 1 24 27
M  V30 27 1 24 28
M  V30 28 2 26 29
M  V30 29 1 26 30
M  V30 30 1 29 31
M  V30 31 2 30 32
M  V30 32 1 31 33
M  V30 33 1 32 34
M  V30 34 2 33 35
M  V30 35 1 34 36
M  V30 36 2 34 37
M  V30 37 1 36 38
M  V30 38 1 21 22
M  V30 39 1 31 32
M  V30 40 1 35 37
M  V30 END BOND
M  V30 BEGIN COLLECTION
M  V30 MDLV30/STEABS ATOMS=(3 9 13 15)
M  V30 END COLLECTION
M  V30 END CTAB
M  END
>  <Ligand InChI>
InChI=1S/C25H35N5O7S/c1-14(2)10-19(30-25(34)20-12-16-17(28-20)6-5-7-22(16)37-3)24(33)29-18(11-15-8-9-26-23(15)32)21(31)13-27-38(4,35)36/h5-7,12,14-15,18-19,27-28H,8-11,13H2,1-4H3,(H,26,32)(H,29,33)(H,30,34)/t15-,18-,19-/m0/s1

>  <Ligand InChI Key>
JNCIMKPBDRMPJR-SNRMKQJTSA-N

>  <BindingDB MonomerID>
423455

>  <Target Name Assigned by Curator or DataSource>
3C-like proteinase (3CL-PRO)

>  <Target Source Organism According to Curator or DataSource>
Human SARS coronavirus

>  <IC50 (nM)>
107

>  <PMID>
WO2005113580A1

>  <Ligand HET ID in PDB>


>  <PDB ID(s) for Ligand-Target Complex>


>  <PubChem CID>


>  <PubChem SID>


>  <ChEMBL ID of Ligand>


>  <DrugBank ID of Ligand>


>  <ZINC ID of Ligand>


>  <PDB ID(s) of Target Chain>
1Q2W,1QZ8,1UJ1,1UK2,1UK3,1UK4,1UW7,1WOF,1Z1I,2A5A,2A5I,2A5K,2ACF,2AHM,2ALV,2AMD,2AMQ,2BX3,2BX4,2C3S,2D2D,2DUC,2FAV,2FE8,2FYG,2G9T,2GA6,2GDT,2GRI,2GT7,2GT8,2GTB,2GX4,2GZ7,2GZ8,2GZ9,2H2Z,2HOB,2HSX,2IDY,2JZF,2K7X,2K87,2KAF,2LIZ,2OP9,2OZK,2RNK,2V6N,2VJ1,2XYQ,2XYR,2XYV,2Z3C,2Z3D,2Z3E,2Z94,2Z9G,2Z9J,2Z9K,2Z9L,2ZU4,2ZU5,3D62,3E91,3E9S,3EA7,3EA8,3EBN,3IWM,3M3V,3MJ5,3R24,3SN8,3SNA,3SNB,3SNC,3SND,3SNE,3SZN,3TIT,3TIU,3TNS,3TNT,3V3M,3VB3,3VB4,3VB5,3VB6,3VB7,4MDS,4MM3,4OVZ,4OW0,5C8S,5C8T,5C8U,5F22,5N19,5N5O,5NFY,5TL6,5TL7,5Y3E,5Y3Q,6JYT,6LNQ,6LNY,6LO0,6NUR,6NUS,6W2A,6W79,6WCO,6XHL,6XHN,6XHO,6XMK,6XOA,7C2K,7JOY

>  <Smiles>
CC(C)C[C@@H](C(N[C@@H](C[C@H](CCN1)C1=O)C(CNS(C)(=O)=O)=O)=O)NC(C1=NC(C=CC=C2OC)C2=C1)=O

$$$$
423463
Actelion Java MolfileCreator 2.0

  0  0  0  0  0  0              0 V3000
M  V30 BEGIN CTAB
M  V30 COUNTS 33 35 0 0 0
M  V30 BEGIN ATOM
M  V30 1 O 0.0 0.0 0.0 0
M  V30 2 C 0.2954 1.477 0.0 0
M  V30 3 N -0.7207 2.5995 0.0 0
M  V30 4 C 1.6542 2.1032 0.0 0 CFG=1
M  V30 5 C 0.0236 3.9111 0.0 0
M  V30 6 C 1.4888 3.6038 0.0 0
M  V30 7 C 2.9421 1.3588 0.0 0
M  V30 8 C 4.2301 2.115 0.0 0
M  V30 9 N 5.518 1.3706 0.0 0
M  V30 10 C 4.2183 3.6275 0.0 0
M  V30 11 C 6.806 2.1268 0.0 0
M  V30 12 O 5.5062 4.3837 0.0 0
M  V30 13 C 2.9067 4.3837 0.0 0
M  V30 14 O 6.7942 3.6393 0.0 0
M  V30 15 C 8.0939 1.3824 0.0 0 CFG=1
M  V30 16 N 8.0821 -0.1063 0.0 0
M  V30 17 C 9.3819 2.1386 0.0 0
M  V30 18 C 6.7705 -0.8389 0.0 0
M  V30 19 C 9.3701 3.6511 0.0 0
M  V30 20 O 5.4589 -0.0827 0.0 0
M  V30 21 C 6.7587 -2.3277 0.0 0
M  V30 22 C 8.0585 4.4073 0.0 0
M  V30 23 C 10.658 4.4073 0.0 0
M  V30 24 N 7.9639 -3.2021 0.0 0
M  V30 25 C 5.5298 -3.2021 0.0 0
M  V30 26 C 7.4913 -4.62 0.0 0
M  V30 27 C 5.9789 -4.62 0.0 0
M  V30 28 C 8.2357 -5.908 0.0 0
M  V30 29 C 5.2226 -5.908 0.0 0
M  V30 30 C 7.4677 -7.1959 0.0 0
M  V30 31 O 3.7102 -5.8961 0.0 0
M  V30 32 C 5.9552 -7.1959 0.0 0
M  V30 33 C 2.9421 -7.1841 0.0 0
M  V30 END ATOM
M  V30 BEGIN BOND
M  V30 1 2 1 2
M  V30 2 1 2 3
M  V30 3 1 2 4
M  V30 4 1 3 5
M  V30 5 1 4 6
M  V30 6 1 4 7 CFG=1
M  V30 7 1 7 8
M  V30 8 1 8 9
M  V30 9 1 8 10
M  V30 10 1 9 11
M  V30 11 2 10 12
M  V30 12 1 10 13
M  V30 13 2 11 14
M  V30 14 1 11 15
M  V30 15 1 15 16 CFG=3
M  V30 16 1 15 17
M  V30 17 1 16 18
M  V30 18 1 17 19
M  V30 19 2 18 20
M  V30 20 1 18 21
M  V30 21 1 19 22
M  V30 22 1 19 23
M  V30 23 2 21 24
M  V30 24 1 21 25
M  V30 25 1 24 26
M  V30 26 2 25 27
M  V30 27 1 26 28
M  V30 28 1 27 29
M  V30 29 2 28 30
M  V30 30 1 29 31
M  V30 31 2 29 32
M  V30 32 1 31 33
M  V30 33 1 5 6
M  V30 34 1 26 27
M  V30 35 1 30 32
M  V30 END BOND
M  V30 BEGIN COLLECTION
M  V30 MDLV30/STEABS ATOMS=(2 4 15)
M  V30 END COLLECTION
M  V30 END CTAB
M  END
>  <Ligand InChI>
InChI=1S/C24H32N4O5/c1-13(2)10-19(23(31)27-18(14(3)29)11-15-8-9-25-22(15)30)28-24(32)20-12-16-17(26-20)6-5-7-21(16)33-4/h5-7,12-13,15,18-19,26H,8-11H2,1-4H3,(H,25,30)(H,27,31)(H,28,32)/t15-,18?,19-/m0/s1

>  <Ligand InChI Key>
QKZJNDBFJRGTAA-GZMMRYBBSA-N

>  <BindingDB MonomerID>
423463

>  <Target Name Assigned by Curator or DataSource>
3C-like proteinase (3CL-PRO)

>  <Target Source Organism According to Curator or DataSource>
Human SARS coronavirus

>  <IC50 (nM)>
2300

>  <PMID>
WO2005113580A1

>  <Ligand HET ID in PDB>


>  <PDB ID(s) for Ligand-Target Complex>


>  <PubChem CID>


>  <PubChem SID>


>  <ChEMBL ID of Ligand>


>  <DrugBank ID of Ligand>


>  <ZINC ID of Ligand>


>  <PDB ID(s) of Target Chain>
1Q2W,1QZ8,1UJ1,1UK2,1UK3,1UK4,1UW7,1WOF,1Z1I,2A5A,2A5I,2A5K,2ACF,2AHM,2ALV,2AMD,2AMQ,2BX3,2BX4,2C3S,2D2D,2DUC,2FAV,2FE8,2FYG,2G9T,2GA6,2GDT,2GRI,2GT7,2GT8,2GTB,2GX4,2GZ7,2GZ8,2GZ9,2H2Z,2HOB,2HSX,2IDY,2JZF,2K7X,2K87,2KAF,2LIZ,2OP9,2OZK,2RNK,2V6N,2VJ1,2XYQ,2XYR,2XYV,2Z3C,2Z3D,2Z3E,2Z94,2Z9G,2Z9J,2Z9K,2Z9L,2ZU4,2ZU5,3D62,3E91,3E9S,3EA7,3EA8,3EBN,3IWM,3M3V,3MJ5,3R24,3SN8,3SNA,3SNB,3SNC,3SND,3SNE,3SZN,3TIT,3TIU,3TNS,3TNT,3V3M,3VB3,3VB4,3VB5,3VB6,3VB7,4MDS,4MM3,4OVZ,4OW0,5C8S,5C8T,5C8U,5F22,5N19,5N5O,5NFY,5TL6,5TL7,5Y3E,5Y3Q,6JYT,6LNQ,6LNY,6LO0,6NUR,6NUS,6W2A,6W79,6WCO,6XHL,6XHN,6XHO,6XMK,6XOA,7C2K,7JOY

>  <Smiles>
CC(C)C[C@@H](C(NC(C[C@H](CCN1)C1=O)C(C)=O)=O)NC(C1=NC(C=CC=C2OC)C2=C1)=O

$$$$
423464
Actelion Java MolfileCreator 2.0

  0  0  0  0  0  0              0 V3000
M  V30 BEGIN CTAB
M  V30 COUNTS 30 32 0 0 0
M  V30 BEGIN ATOM
M  V30 1 O 0.0 0.0 0.0 0
M  V30 2 C 0.296 1.4801 0.0 0
M  V30 3 N -0.7223 2.605 0.0 0
M  V30 4 C 1.6577 2.1077 0.0 0 CFG=1
M  V30 5 C 0.0118 3.9193 0.0 0
M  V30 6 C 1.4919 3.6115 0.0 0
M  V30 7 C 2.9484 1.3735 0.0 0
M  V30 8 C 2.9365 -0.1184 0.0 0 CFG=2
M  V30 9 N 4.2272 -0.8643 0.0 0
M  V30 10 C 1.6222 -0.8643 0.0 0
M  V30 11 C 4.2154 -2.3563 0.0 0
M  V30 12 O 1.6103 -2.3563 0.0 0
M  V30 13 O 2.901 -3.0905 0.0 0
M  V30 14 C 5.5061 -3.0905 0.0 0 CFG=1
M  V30 15 N 5.4942 -4.5824 0.0 0
M  V30 16 C 6.7967 -2.3326 0.0 0
M  V30 17 C 6.7849 -5.3166 0.0 0
M  V30 18 C 6.7849 -0.817 0.0 0
M  V30 19 O 8.0756 -4.5588 0.0 0
M  V30 20 C 6.773 -6.8086 0.0 0
M  V30 21 C 5.4705 -0.0473 0.0 0
M  V30 22 C 8.0756 -0.0473 0.0 0
M  V30 23 N 7.9808 -7.6848 0.0 0
M  V30 24 N 5.5416 -7.6848 0.0 0
M  V30 25 C 7.5072 -9.1057 0.0 0
M  V30 26 C 5.9915 -9.1057 0.0 0
M  V30 27 C 8.2413 -10.3964 0.0 0
M  V30 28 C 5.2337 -10.3964 0.0 0
M  V30 29 C 7.4835 -11.6871 0.0 0
M  V30 30 C 5.9679 -11.6871 0.0 0
M  V30 END ATOM
M  V30 BEGIN BOND
M  V30 1 2 1 2
M  V30 2 1 2 3
M  V30 3 1 2 4
M  V30 4 1 3 5
M  V30 5 1 4 6
M  V30 6 1 4 7 CFG=1
M  V30 7 1 7 8
M  V30 8 1 8 9 CFG=3
M  V30 9 1 8 10
M  V30 10 1 9 11
M  V30 11 2 10 12
M  V30 12 2 11 13
M  V30 13 1 11 14
M  V30 14 1 14 15 CFG=3
M  V30 15 1 14 16
M  V30 16 1 15 17
M  V30 17 1 16 18
M  V30 18 2 17 19
M  V30 19 1 17 20
M  V30 20 1 18 21
M  V30 21 1 18 22
M  V30 22 2 20 23
M  V30 23 1 20 24
M  V30 24 1 23 25
M  V30 25 2 24 26
M  V30 26 1 25 27
M  V30 27 1 26 28
M  V30 28 2 27 29
M  V30 29 2 28 30
M  V30 30 1 5 6
M  V30 31 1 25 26
M  V30 32 1 29 30
M  V30 END BOND
M  V30 BEGIN COLLECTION
M  V30 MDLV30/STEABS ATOMS=(3 4 8 14)
M  V30 END COLLECTION
M  V30 END CTAB
M  END
>  <Ligand InChI>
InChI=1S/C21H27N5O4/c1-12(2)9-17(20(29)23-14(11-27)10-13-7-8-22-19(13)28)26-21(30)18-24-15-5-3-4-6-16(15)25-18/h3-6,11-14,17H,7-10H2,1-2H3,(H,22,28)(H,23,29)(H,24,25)(H,26,30)/t13-,14-,17-/m0/s1

>  <Ligand InChI Key>
CQAHVFTUINWYCR-ZQIUZPCESA-N

>  <BindingDB MonomerID>
423464

>  <Target Name Assigned by Curator or DataSource>
3C-like proteinase (3CL-PRO)

>  <Target Source Organism According to Curator or DataSource>
Human SARS coronavirus

>  <IC50 (nM)>
32

>  <PMID>
WO2005113580A1

>  <Ligand HET ID in PDB>


>  <PDB ID(s) for Ligand-Target Complex>


>  <PubChem CID>


>  <PubChem SID>


>  <ChEMBL ID of Ligand>


>  <DrugBank ID of Ligand>


>  <ZINC ID of Ligand>


>  <PDB ID(s) of Target Chain>
1Q2W,1QZ8,1UJ1,1UK2,1UK3,1UK4,1UW7,1WOF,1Z1I,2A5A,2A5I,2A5K,2ACF,2AHM,2ALV,2AMD,2AMQ,2BX3,2BX4,2C3S,2D2D,2DUC,2FAV,2FE8,2FYG,2G9T,2GA6,2GDT,2GRI,2GT7,2GT8,2GTB,2GX4,2GZ7,2GZ8,2GZ9,2H2Z,2HOB,2HSX,2IDY,2JZF,2K7X,2K87,2KAF,2LIZ,2OP9,2OZK,2RNK,2V6N,2VJ1,2XYQ,2XYR,2XYV,2Z3C,2Z3D,2Z3E,2Z94,2Z9G,2Z9J,2Z9K,2Z9L,2ZU4,2ZU5,3D62,3E91,3E9S,3EA7,3EA8,3EBN,3IWM,3M3V,3MJ5,3R24,3SN8,3SNA,3SNB,3SNC,3SND,3SNE,3SZN,3TIT,3TIU,3TNS,3TNT,3V3M,3VB3,3VB4,3VB5,3VB6,3VB7,4MDS,4MM3,4OVZ,4OW0,5C8S,5C8T,5C8U,5F22,5N19,5N5O,5NFY,5TL6,5TL7,5Y3E,5Y3Q,6JYT,6LNQ,6LNY,6LO0,6NUR,6NUS,6W2A,6W79,6WCO,6XHL,6XHN,6XHO,6XMK,6XOA,7C2K,7JOY

>  <Smiles>
CC(C)C[C@@H](C(N[C@@H](C[C@H](CCN1)C1=O)C=O)=O)NC(C1=NC(C=CC=C2)C2=N1)=O

$$$$
423465
Actelion Java MolfileCreator 2.0

  0  0  0  0  0  0              0 V3000
M  V30 BEGIN CTAB
M  V30 COUNTS 30 32 0 0 0
M  V30 BEGIN ATOM
M  V30 1 O 0.0 0.0 0.0 0
M  V30 2 C 0.296 1.4801 0.0 0
M  V30 3 N -0.7223 2.605 0.0 0
M  V30 4 C 1.6577 2.1077 0.0 0 CFG=1
M  V30 5 C 0.0118 3.9193 0.0 0
M  V30 6 C 1.4919 3.6115 0.0 0
M  V30 7 C 2.9484 1.3735 0.0 0
M  V30 8 C 2.9365 -0.1184 0.0 0 CFG=2
M  V30 9 N 4.2272 -0.8643 0.0 0
M  V30 10 C 1.6222 -0.8643 0.0 0
M  V30 11 C 4.2154 -2.3563 0.0 0
M  V30 12 O 1.6103 -2.3563 0.0 0
M  V30 13 O 2.901 -3.0905 0.0 0
M  V30 14 C 5.5061 -3.0905 0.0 0 CFG=1
M  V30 15 N 5.4942 -4.5824 0.0 0
M  V30 16 C 6.7967 -2.3326 0.0 0
M  V30 17 C 6.7849 -5.3166 0.0 0
M  V30 18 C 6.7849 -0.817 0.0 0
M  V30 19 O 8.0756 -4.5588 0.0 0
M  V30 20 C 6.773 -6.8086 0.0 0
M  V30 21 C 5.4705 -0.0473 0.0 0
M  V30 22 C 8.0756 -0.0473 0.0 0
M  V30 23 N 7.9808 -7.6848 0.0 0
M  V30 24 C 5.5416 -7.6848 0.0 0
M  V30 25 C 7.5072 -9.1057 0.0 0
M  V30 26 C 5.9915 -9.1057 0.0 0
M  V30 27 C 8.2413 -10.3964 0.0 0
M  V30 28 C 5.2337 -10.3964 0.0 0
M  V30 29 C 7.4835 -11.6871 0.0 0
M  V30 30 C 5.9679 -11.6871 0.0 0
M  V30 END ATOM
M  V30 BEGIN BOND
M  V30 1 2 1 2
M  V30 2 1 2 3
M  V30 3 1 2 4
M  V30 4 1 3 5
M  V30 5 1 4 6
M  V30 6 1 4 7 CFG=1
M  V30 7 1 7 8
M  V30 8 1 8 9 CFG=3
M  V30 9 1 8 10
M  V30 10 1 9 11
M  V30 11 2 10 12
M  V30 12 2 11 13
M  V30 13 1 11 14
M  V30 14 1 14 15 CFG=3
M  V30 15 1 14 16
M  V30 16 1 15 17
M  V30 17 1 16 18
M  V30 18 2 17 19
M  V30 19 1 17 20
M  V30 20 1 18 21
M  V30 21 1 18 22
M  V30 22 2 20 23
M  V30 23 1 20 24
M  V30 24 1 23 25
M  V30 25 2 24 26
M  V30 26 1 25 27
M  V30 27 1 26 28
M  V30 28 2 27 29
M  V30 29 2 28 30
M  V30 30 1 5 6
M  V30 31 1 25 26
M  V30 32 1 29 30
M  V30 END BOND
M  V30 BEGIN COLLECTION
M  V30 MDLV30/STEABS ATOMS=(3 4 8 14)
M  V30 END COLLECTION
M  V30 END CTAB
M  END
>  <Ligand InChI>
InChI=1S/C22H28N4O4/c1-13(2)9-18(21(29)24-16(12-27)10-15-7-8-23-20(15)28)26-22(30)19-11-14-5-3-4-6-17(14)25-19/h3-6,11-13,15-16,18,25H,7-10H2,1-2H3,(H,23,28)(H,24,29)(H,26,30)/t15-,16-,18-/m0/s1

>  <Ligand InChI Key>
HXJZYYCILNIXEI-BQFCYCMXSA-N

>  <BindingDB MonomerID>
423465

>  <Target Name Assigned by Curator or DataSource>
3C-like proteinase (3CL-PRO)

>  <Target Source Organism According to Curator or DataSource>
Human SARS coronavirus

>  <IC50 (nM)>
20

>  <PMID>
WO2005113580A1

>  <Ligand HET ID in PDB>


>  <PDB ID(s) for Ligand-Target Complex>


>  <PubChem CID>


>  <PubChem SID>


>  <ChEMBL ID of Ligand>


>  <DrugBank ID of Ligand>


>  <ZINC ID of Ligand>


>  <PDB ID(s) of Target Chain>
1Q2W,1QZ8,1UJ1,1UK2,1UK3,1UK4,1UW7,1WOF,1Z1I,2A5A,2A5I,2A5K,2ACF,2AHM,2ALV,2AMD,2AMQ,2BX3,2BX4,2C3S,2D2D,2DUC,2FAV,2FE8,2FYG,2G9T,2GA6,2GDT,2GRI,2GT7,2GT8,2GTB,2GX4,2GZ7,2GZ8,2GZ9,2H2Z,2HOB,2HSX,2IDY,2JZF,2K7X,2K87,2KAF,2LIZ,2OP9,2OZK,2RNK,2V6N,2VJ1,2XYQ,2XYR,2XYV,2Z3C,2Z3D,2Z3E,2Z94,2Z9G,2Z9J,2Z9K,2Z9L,2ZU4,2ZU5,3D62,3E91,3E9S,3EA7,3EA8,3EBN,3IWM,3M3V,3MJ5,3R24,3SN8,3SNA,3SNB,3SNC,3SND,3SNE,3SZN,3TIT,3TIU,3TNS,3TNT,3V3M,3VB3,3VB4,3VB5,3VB6,3VB7,4MDS,4MM3,4OVZ,4OW0,5C8S,5C8T,5C8U,5F22,5N19,5N5O,5NFY,5TL6,5TL7,5Y3E,5Y3Q,6JYT,6LNQ,6LNY,6LO0,6NUR,6NUS,6W2A,6W79,6WCO,6XHL,6XHN,6XHO,6XMK,6XOA,7C2K,7JOY

>  <Smiles>
CC(C)C[C@@H](C(N[C@@H](C[C@H](CCN1)C1=O)C=O)=O)NC(C1=NC(C=CC=C2)C2=C1)=O

$$$$
423466
Actelion Java MolfileCreator 2.0

  0  0  0  0  0  0              0 V3000
M  V30 BEGIN CTAB
M  V30 COUNTS 36 37 0 0 0
M  V30 BEGIN ATOM
M  V30 1 O 0.0 0.0 0.0 0
M  V30 2 C 0.8944 1.2005 0.0 0
M  V30 3 N 2.3774 1.1887 0.0 0
M  V30 4 C 0.4472 2.6481 0.0 0 CFG=1
M  V30 5 C 2.86 2.6128 0.0 0
M  V30 6 C 1.6595 3.5191 0.0 0
M  V30 7 C -0.9768 3.1542 0.0 0
M  V30 8 C -2.1185 2.1891 0.0 0 CFG=2
M  V30 9 N -3.5426 2.6952 0.0 0
M  V30 10 C -1.8478 0.7297 0.0 0
M  V30 11 C -4.6843 1.7301 0.0 0
M  V30 12 O -2.9895 -0.2353 0.0 0
M  V30 13 O -4.4136 0.2707 0.0 0
M  V30 14 C -6.1084 2.2362 0.0 0 CFG=1
M  V30 15 N -7.2501 1.2711 0.0 0
M  V30 16 C -6.4027 3.7192 0.0 0
M  V30 17 C -8.6742 1.7772 0.0 0
M  V30 18 C -5.2846 4.7078 0.0 0
M  V30 19 O -8.9685 3.2602 0.0 0
M  V30 20 C -9.8159 0.8121 0.0 0 CFG=1
M  V30 21 C -5.5788 6.1908 0.0 0
M  V30 22 C -3.884 4.2253 0.0 0
M  V30 23 N -11.24 1.3182 0.0 0
M  V30 24 C -9.5452 -0.6473 0.0 0
M  V30 25 C -12.3817 0.353 0.0 0
M  V30 26 C -10.6869 -1.6124 0.0 0
M  V30 27 C -8.1446 -1.1298 0.0 0
M  V30 28 O -12.111 -1.1063 0.0 0
M  V30 29 O -13.8058 0.8591 0.0 0
M  V30 30 C -14.9475 -0.1059 0.0 0
M  V30 31 C -16.3716 0.4001 0.0 0
M  V30 32 C -17.5133 -0.5649 0.0 0
M  V30 33 C -16.6659 1.8831 0.0 0
M  V30 34 C -18.9374 -0.0588 0.0 0
M  V30 35 C -18.09 2.3892 0.0 0
M  V30 36 C -19.2317 1.4241 0.0 0
M  V30 END ATOM
M  V30 BEGIN BOND
M  V30 1 2 1 2
M  V30 2 1 2 3
M  V30 3 1 2 4
M  V30 4 1 3 5
M  V30 5 1 4 6
M  V30 6 1 4 7 CFG=3
M  V30 7 1 7 8
M  V30 8 1 8 9 CFG=1
M  V30 9 1 8 10
M  V30 10 1 9 11
M  V30 11 2 10 12
M  V30 12 2 11 13
M  V30 13 1 11 14
M  V30 14 1 14 15 CFG=1
M  V30 15 1 14 16
M  V30 16 1 15 17
M  V30 17 1 16 18
M  V30 18 2 17 19
M  V30 19 1 17 20
M  V30 20 1 18 21
M  V30 21 1 18 22
M  V30 22 1 20 23 CFG=3
M  V30 23 1 20 24
M  V30 24 1 23 25
M  V30 25 1 24 26
M  V30 26 1 24 27
M  V30 27 2 25 28
M  V30 28 1 25 29
M  V30 29 1 29 30
M  V30 30 1 30 31
M  V30 31 2 31 32
M  V30 32 1 31 33
M  V30 33 1 32 34
M  V30 34 2 33 35
M  V30 35 2 34 36
M  V30 36 1 5 6
M  V30 37 1 35 36
M  V30 END BOND
M  V30 BEGIN COLLECTION
M  V30 MDLV30/STEABS ATOMS=(4 4 8 14 20)
M  V30 END COLLECTION
M  V30 END CTAB
M  END
>  <Ligand InChI>
InChI=1S/C26H38N4O6/c1-16(2)12-21(24(33)28-20(14-31)13-19-10-11-27-23(19)32)29-25(34)22(17(3)4)30-26(35)36-15-18-8-6-5-7-9-18/h5-9,14,16-17,19-22H,10-13,15H2,1-4H3,(H,27,32)(H,28,33)(H,29,34)(H,30,35)/t19-,20-,21-,22-/m0/s1

>  <Ligand InChI Key>
RUHYGYHBVKWREW-CMOCDZPBSA-N

>  <BindingDB MonomerID>
423466

>  <Target Name Assigned by Curator or DataSource>
3C-like proteinase (3CL-PRO)

>  <Target Source Organism According to Curator or DataSource>
Human SARS coronavirus

>  <IC50 (nM)>
60

>  <PMID>
WO2005113580A1

>  <Ligand HET ID in PDB>


>  <PDB ID(s) for Ligand-Target Complex>


>  <PubChem CID>


>  <PubChem SID>


>  <ChEMBL ID of Ligand>


>  <DrugBank ID of Ligand>


>  <ZINC ID of Ligand>


>  <PDB ID(s) of Target Chain>
1Q2W,1QZ8,1UJ1,1UK2,1UK3,1UK4,1UW7,1WOF,1Z1I,2A5A,2A5I,2A5K,2ACF,2AHM,2ALV,2AMD,2AMQ,2BX3,2BX4,2C3S,2D2D,2DUC,2FAV,2FE8,2FYG,2G9T,2GA6,2GDT,2GRI,2GT7,2GT8,2GTB,2GX4,2GZ7,2GZ8,2GZ9,2H2Z,2HOB,2HSX,2IDY,2JZF,2K7X,2K87,2KAF,2LIZ,2OP9,2OZK,2RNK,2V6N,2VJ1,2XYQ,2XYR,2XYV,2Z3C,2Z3D,2Z3E,2Z94,2Z9G,2Z9J,2Z9K,2Z9L,2ZU4,2ZU5,3D62,3E91,3E9S,3EA7,3EA8,3EBN,3IWM,3M3V,3MJ5,3R24,3SN8,3SNA,3SNB,3SNC,3SND,3SNE,3SZN,3TIT,3TIU,3TNS,3TNT,3V3M,3VB3,3VB4,3VB5,3VB6,3VB7,4MDS,4MM3,4OVZ,4OW0,5C8S,5C8T,5C8U,5F22,5N19,5N5O,5NFY,5TL6,5TL7,5Y3E,5Y3Q,6JYT,6LNQ,6LNY,6LO0,6NUR,6NUS,6W2A,6W79,6WCO,6XHL,6XHN,6XHO,6XMK,6XOA,7C2K,7JOY

>  <Smiles>
CC(C)C[C@@H](C(N[C@@H](C[C@H](CCN1)C1=O)C=O)=O)NC([C@H](C(C)C)NC(OCc1ccccc1)=O)=O

$$$$
423469
Actelion Java MolfileCreator 2.0

  0  0  0  0  0  0              0 V3000
M  V30 BEGIN CTAB
M  V30 COUNTS 32 33 0 0 0
M  V30 BEGIN ATOM
M  V30 1 O 0.0 0.0 0.0 0
M  V30 2 C 1.0703 -1.0233 0.0 0
M  V30 3 N 2.4936 -0.5998 0.0 0
M  V30 4 C 0.6939 -2.47 0.0 0
M  V30 5 C 2.8464 0.8704 0.0 0 CFG=2
M  V30 6 N 1.6467 -3.5992 0.0 0
M  V30 7 C -0.7057 -3.0229 0.0 0
M  V30 8 C 1.7525 1.9172 0.0 0
M  V30 9 C 4.2697 1.2938 0.0 0
M  V30 10 C 0.8468 -4.8578 0.0 0
M  V30 11 C -0.6116 -4.5049 0.0 0
M  V30 12 O 2.1054 3.3875 0.0 0
M  V30 13 N 0.3058 1.5173 0.0 0
M  V30 14 C 4.6225 2.7641 0.0 0
M  V30 15 C 1.2468 -6.281 0.0 0
M  V30 16 C -1.6584 -5.5753 0.0 0
M  V30 17 C -0.788 2.5641 0.0 0 CFG=2
M  V30 18 C 3.5286 3.8109 0.0 0
M  V30 19 C 6.0458 3.1875 0.0 0
M  V30 20 C 0.1999 -7.3514 0.0 0
M  V30 21 O -3.1287 -5.1989 0.0 0
M  V30 22 C -1.2585 -6.9985 0.0 0
M  V30 23 C -0.4352 4.0344 0.0 0
M  V30 24 C -2.2348 2.1642 0.0 0
M  V30 25 C -4.1756 -6.2693 0.0 0
M  V30 26 O -1.529 5.0813 0.0 0
M  V30 27 C -3.3287 3.2111 0.0 0
M  V30 28 C -4.7754 2.8111 0.0 0
M  V30 29 O -5.1518 1.3644 0.0 0
M  V30 30 N -5.8693 3.858 0.0 0
M  V30 31 C -7.3161 3.4581 0.0 0
M  V30 32 C -5.5165 5.3283 0.0 0
M  V30 END ATOM
M  V30 BEGIN BOND
M  V30 1 2 1 2
M  V30 2 1 2 3
M  V30 3 1 2 4
M  V30 4 1 5 3 CFG=3
M  V30 5 2 4 6
M  V30 6 1 4 7
M  V30 7 1 5 8
M  V30 8 1 5 9
M  V30 9 1 6 10
M  V30 10 2 7 11
M  V30 11 2 8 12
M  V30 12 1 8 13
M  V30 13 1 9 14
M  V30 14 1 10 15
M  V30 15 1 11 16
M  V30 16 1 17 13 CFG=1
M  V30 17 1 14 18
M  V30 18 1 14 19
M  V30 19 2 15 20
M  V30 20 1 16 21
M  V30 21 2 16 22
M  V30 22 1 17 23
M  V30 23 1 17 24
M  V30 24 1 21 25
M  V30 25 2 23 26
M  V30 26 1 24 27
M  V30 27 1 27 28
M  V30 28 2 28 29
M  V30 29 1 28 30
M  V30 30 1 30 31
M  V30 31 1 30 32
M  V30 32 1 10 11
M  V30 33 1 20 22
M  V30 END BOND
M  V30 BEGIN COLLECTION
M  V30 MDLV30/STEABS ATOMS=(2 5 17)
M  V30 END COLLECTION
M  V30 END CTAB
M  END
>  <Ligand InChI>
InChI=1S/C23H32N4O5/c1-14(2)11-18(22(30)24-15(13-28)9-10-21(29)27(3)4)26-23(31)19-12-16-17(25-19)7-6-8-20(16)32-5/h6-8,12-15,18,25H,9-11H2,1-5H3,(H,24,30)(H,26,31)/t15-,18-/m0/s1

>  <Ligand InChI Key>
SEEIOOYGXIFSRU-YJBOKZPZSA-N

>  <BindingDB MonomerID>
423469

>  <Target Name Assigned by Curator or DataSource>
3C-like proteinase (3CL-PRO)

>  <Target Source Organism According to Curator or DataSource>
Human SARS coronavirus

>  <IC50 (nM)>
50

>  <PMID>
WO2005113580A1

>  <Ligand HET ID in PDB>


>  <PDB ID(s) for Ligand-Target Complex>


>  <PubChem CID>


>  <PubChem SID>


>  <ChEMBL ID of Ligand>


>  <DrugBank ID of Ligand>


>  <ZINC ID of Ligand>


>  <PDB ID(s) of Target Chain>
1Q2W,1QZ8,1UJ1,1UK2,1UK3,1UK4,1UW7,1WOF,1Z1I,2A5A,2A5I,2A5K,2ACF,2AHM,2ALV,2AMD,2AMQ,2BX3,2BX4,2C3S,2D2D,2DUC,2FAV,2FE8,2FYG,2G9T,2GA6,2GDT,2GRI,2GT7,2GT8,2GTB,2GX4,2GZ7,2GZ8,2GZ9,2H2Z,2HOB,2HSX,2IDY,2JZF,2K7X,2K87,2KAF,2LIZ,2OP9,2OZK,2RNK,2V6N,2VJ1,2XYQ,2XYR,2XYV,2Z3C,2Z3D,2Z3E,2Z94,2Z9G,2Z9J,2Z9K,2Z9L,2ZU4,2ZU5,3D62,3E91,3E9S,3EA7,3EA8,3EBN,3IWM,3M3V,3MJ5,3R24,3SN8,3SNA,3SNB,3SNC,3SND,3SNE,3SZN,3TIT,3TIU,3TNS,3TNT,3V3M,3VB3,3VB4,3VB5,3VB6,3VB7,4MDS,4MM3,4OVZ,4OW0,5C8S,5C8T,5C8U,5F22,5N19,5N5O,5NFY,5TL6,5TL7,5Y3E,5Y3Q,6JYT,6LNQ,6LNY,6LO0,6NUR,6NUS,6W2A,6W79,6WCO,6XHL,6XHN,6XHO,6XMK,6XOA,7C2K,7JOY

>  <Smiles>
CC(C)C[C@@H](C(N[C@@H](CCC(N(C)C)=O)C=O)=O)NC(C1=NC(C=CC=C2OC)C2=C1)=O

$$$$
419121
Actelion Java MolfileCreator 2.0

  0  0  0  0  0  0              0 V3000
M  V30 BEGIN CTAB
M  V30 COUNTS 32 33 0 0 0
M  V30 BEGIN ATOM
M  V30 1 S 0.0 0.0 0.0 0
M  V30 2 O 1.2014 0.8951 0.0 0
M  V30 3 O -1.2249 -0.8716 0.0 0
M  V30 4 O 0.8716 -1.2014 0.0 0 CHG=-1
M  V30 5 C -0.8951 1.2249 0.0 0
M  V30 6 O -2.391 1.0836 0.0 0
M  V30 7 C -0.2944 2.603 0.0 0 CFG=2
M  V30 8 N -1.1896 3.828 0.0 0
M  V30 9 C 1.1778 2.7679 0.0 0
M  V30 10 C -2.6855 3.6866 0.0 0
M  V30 11 C 2.0494 1.5665 0.0 0
M  V30 12 O -3.3097 2.3321 0.0 0
M  V30 13 C -3.5806 4.9116 0.0 0 CFG=2
M  V30 14 C 3.5335 1.5783 0.0 0
M  V30 15 C 1.5783 0.1531 0.0 0
M  V30 16 N -5.0765 4.7703 0.0 0
M  V30 17 C -2.9799 6.2897 0.0 0
M  V30 18 O 4.4051 2.8032 0.0 0
M  V30 19 N 3.9811 0.1648 0.0 0
M  V30 20 C 2.7797 -0.7184 0.0 0
M  V30 21 C -5.9717 5.9952 0.0 0
M  V30 22 C -1.5076 6.4546 0.0 0
M  V30 23 O -5.371 7.3733 0.0 0
M  V30 24 O -7.4675 5.8539 0.0 0
M  V30 25 C -0.9069 7.8327 0.0 0
M  V30 26 C -0.636 5.2532 0.0 0
M  V30 27 C -8.3627 7.0788 0.0 0
M  V30 28 C -7.762 8.4569 0.0 0
M  V30 29 C -9.8586 6.9375 0.0 0
M  V30 30 C -8.6572 9.6819 0.0 0
M  V30 31 C -10.7537 8.1625 0.0 0
M  V30 32 C -10.153 9.5406 0.0 0
M  V30 END ATOM
M  V30 BEGIN BOND
M  V30 1 2 1 2
M  V30 2 2 1 3
M  V30 3 1 1 4
M  V30 4 1 1 5
M  V30 5 1 5 6
M  V30 6 1 5 7
M  V30 7 1 7 8 CFG=3
M  V30 8 1 7 9
M  V30 9 1 8 10
M  V30 10 1 9 11
M  V30 11 2 10 12
M  V30 12 1 10 13
M  V30 13 1 11 14
M  V30 14 1 11 15
M  V30 15 1 13 16 CFG=3
M  V30 16 1 13 17
M  V30 17 2 14 18
M  V30 18 1 14 19
M  V30 19 1 15 20
M  V30 20 1 16 21
M  V30 21 1 17 22
M  V30 22 2 21 23
M  V30 23 1 21 24
M  V30 24 1 22 25
M  V30 25 1 22 26
M  V30 26 1 24 27
M  V30 27 1 27 28
M  V30 28 1 27 29
M  V30 29 1 28 30
M  V30 30 1 29 31
M  V30 31 1 30 32
M  V30 32 1 19 20
M  V30 33 1 31 32
M  V30 END BOND
M  V30 BEGIN COLLECTION
M  V30 MDLV30/STEABS ATOMS=(2 7 13)
M  V30 END COLLECTION
M  V30 END CTAB
M  END
>  <Ligand InChI>
InChI=1S/C20H35N3O8S/c1-12(2)10-15(23-20(27)31-14-6-4-3-5-7-14)18(25)22-16(19(26)32(28,29)30)11-13-8-9-21-17(13)24/h12-16,19,26H,3-11H2,1-2H3,(H,21,24)(H,22,25)(H,23,27)(H,28,29,30)/p-1/t13?,15-,16-,19?/m1/s1

>  <Ligand InChI Key>
ORKNIPZHPCWIDI-BYGOXVSRSA-M

>  <BindingDB MonomerID>
419121

>  <Target Name Assigned by Curator or DataSource>
Papain-like protease (PLpro)

>  <Target Source Organism According to Curator or DataSource>


>  <IC50 (nM)>
3900

>  <PMID>
32747425

>  <Ligand HET ID in PDB>


>  <PDB ID(s) for Ligand-Target Complex>


>  <PubChem CID>


>  <PubChem SID>


>  <ChEMBL ID of Ligand>


>  <DrugBank ID of Ligand>


>  <ZINC ID of Ligand>


>  <PDB ID(s) of Target Chain>
1Q2W,1QZ8,1UJ1,1UK2,1UK3,1UK4,1UW7,1WOF,1Z1I,2A5A,2A5I,2A5K,2ACF,2AHM,2ALV,2AMD,2AMQ,2BX3,2BX4,2C3S,2D2D,2DUC,2FAV,2FE8,2FYG,2G9T,2GA6,2GDT,2GRI,2GT7,2GT8,2GTB,2GX4,2GZ7,2GZ8,2GZ9,2H2Z,2HOB,2HSX,2IDY,2JZF,2K7X,2K87,2KAF,2LIZ,2OP9,2RNK,2V6N,2VJ1,2XYQ,2XYR,2XYV,2Z3C,2Z3D,2Z3E,2Z94,2Z9G,2Z9J,2Z9K,2Z9L,2ZU4,2ZU5,3D62,3E91,3E9S,3EA7,3EA8,3EBN,3IWM,3M3V,3MJ5,3R24,3SN8,3SNA,3SNB,3SNC,3SND,3SNE,3SZN,3TIT,3TIU,3TNS,3TNT,3V3M,3VB3,3VB4,3VB5,3VB6,3VB7,4MDS,4MM3,4OVZ,4OW0,5C8S,5C8T,5C8U,5F22,5N19,5N5O,5NFY,5TL6,5TL7,5Y3E,5Y3Q,6LNQ,6LNY,6LO0,6NUR,6NUS,6W2A,6W79,6WCO,6XHL,6XHN,6XHO,6XMK,6XOA

>  <Smiles>
CC(C)C[C@H](C(N[C@H](CC(CCN1)C1=O)C(O)S([O-])(=O)=O)=O)NC(OC1CCCCC1)=O

$$$$
419123
Actelion Java MolfileCreator 2.0

  0  0  0  0  0  0              0 V3000
M  V30 BEGIN CTAB
M  V30 COUNTS 28 29 0 0 0
M  V30 BEGIN ATOM
M  V30 1 O 0.0 0.0 0.0 0
M  V30 2 C -0.8935 -1.1993 0.0 0
M  V30 3 N -0.4467 -2.6102 0.0 0
M  V30 4 C -2.3986 -1.1875 0.0 0
M  V30 5 C -1.6696 -3.4803 0.0 0
M  V30 6 C -2.8689 -2.5984 0.0 0
M  V30 7 C -3.2922 0.0352 0.0 0
M  V30 8 C -4.7854 -0.1058 0.0 0 CFG=1
M  V30 9 N -5.679 1.1169 0.0 0
M  V30 10 C -5.4086 -1.4579 0.0 0
M  V30 11 C -7.1722 0.9759 0.0 0
M  V30 12 O -6.9018 -1.599 0.0 0
M  V30 13 O -7.7954 -0.3762 0.0 0
M  V30 14 C -8.0658 2.1987 0.0 0 CFG=2
M  V30 15 N -9.5591 2.0576 0.0 0
M  V30 16 C -7.4662 3.5743 0.0 0
M  V30 17 C -10.4527 3.2804 0.0 0
M  V30 18 C -5.9965 3.7389 0.0 0
M  V30 19 O -9.853 4.6561 0.0 0
M  V30 20 O -11.9459 3.1393 0.0 0
M  V30 21 C -5.3968 5.1146 0.0 0
M  V30 22 C -5.1264 2.5396 0.0 0
M  V30 23 C -12.8395 4.3621 0.0 0
M  V30 24 C -12.2399 5.7378 0.0 0
M  V30 25 C -14.3328 4.221 0.0 0
M  V30 26 C -13.1335 6.9606 0.0 0
M  V30 27 C -15.2264 5.4438 0.0 0
M  V30 28 C -14.6267 6.8195 0.0 0
M  V30 END ATOM
M  V30 BEGIN BOND
M  V30 1 2 1 2
M  V30 2 1 2 3
M  V30 3 1 2 4
M  V30 4 1 3 5
M  V30 5 1 4 6
M  V30 6 1 4 7
M  V30 7 1 7 8
M  V30 8 1 8 9 CFG=3
M  V30 9 1 8 10
M  V30 10 1 9 11
M  V30 11 2 10 12
M  V30 12 2 11 13
M  V30 13 1 11 14
M  V30 14 1 14 15 CFG=3
M  V30 15 1 14 16
M  V30 16 1 15 17
M  V30 17 1 16 18
M  V30 18 2 17 19
M  V30 19 1 17 20
M  V30 20 1 18 21
M  V30 21 1 18 22
M  V30 22 1 20 23
M  V30 23 1 23 24
M  V30 24 1 23 25
M  V30 25 1 24 26
M  V30 26 1 25 27
M  V30 27 1 26 28
M  V30 28 1 5 6
M  V30 29 1 27 28
M  V30 END BOND
M  V30 BEGIN COLLECTION
M  V30 MDLV30/STEABS ATOMS=(2 8 14)
M  V30 END COLLECTION
M  V30 END CTAB
M  END
>  <Ligand InChI>
InChI=1S/C20H33N3O5/c1-13(2)10-17(23-20(27)28-16-6-4-3-5-7-16)19(26)22-15(12-24)11-14-8-9-21-18(14)25/h12-17H,3-11H2,1-2H3,(H,21,25)(H,22,26)(H,23,27)/t14?,15-,17-/m1/s1

>  <Ligand InChI Key>
JAZGKZKQQSCVMM-HOSQGPGDSA-N

>  <BindingDB MonomerID>
419123

>  <Target Name Assigned by Curator or DataSource>
Papain-like protease (PLpro)

>  <Target Source Organism According to Curator or DataSource>


>  <IC50 (nM)>
3800

>  <PMID>
32747425

>  <Ligand HET ID in PDB>


>  <PDB ID(s) for Ligand-Target Complex>


>  <PubChem CID>


>  <PubChem SID>


>  <ChEMBL ID of Ligand>


>  <DrugBank ID of Ligand>


>  <ZINC ID of Ligand>


>  <PDB ID(s) of Target Chain>
1Q2W,1QZ8,1UJ1,1UK2,1UK3,1UK4,1UW7,1WOF,1Z1I,2A5A,2A5I,2A5K,2ACF,2AHM,2ALV,2AMD,2AMQ,2BX3,2BX4,2C3S,2D2D,2DUC,2FAV,2FE8,2FYG,2G9T,2GA6,2GDT,2GRI,2GT7,2GT8,2GTB,2GX4,2GZ7,2GZ8,2GZ9,2H2Z,2HOB,2HSX,2IDY,2JZF,2K7X,2K87,2KAF,2LIZ,2OP9,2RNK,2V6N,2VJ1,2XYQ,2XYR,2XYV,2Z3C,2Z3D,2Z3E,2Z94,2Z9G,2Z9J,2Z9K,2Z9L,2ZU4,2ZU5,3D62,3E91,3E9S,3EA7,3EA8,3EBN,3IWM,3M3V,3MJ5,3R24,3SN8,3SNA,3SNB,3SNC,3SND,3SNE,3SZN,3TIT,3TIU,3TNS,3TNT,3V3M,3VB3,3VB4,3VB5,3VB6,3VB7,4MDS,4MM3,4OVZ,4OW0,5C8S,5C8T,5C8U,5F22,5N19,5N5O,5NFY,5TL6,5TL7,5Y3E,5Y3Q,6LNQ,6LNY,6LO0,6NUR,6NUS,6W2A,6W79,6WCO,6XHL,6XHN,6XHO,6XMK,6XOA

>  <Smiles>
CC(C)C[C@H](C(N[C@H](CC(CCN1)C1=O)C=O)=O)NC(OC1CCCCC1)=O

$$$$
419124
Actelion Java MolfileCreator 2.0

  0  0  0  0  0  0              0 V3000
M  V30 BEGIN CTAB
M  V30 COUNTS 35 36 0 0 0
M  V30 BEGIN ATOM
M  V30 1 S 0.0 0.0 0.0 0
M  V30 2 O 1.2005 0.8945 0.0 0
M  V30 3 O -1.2241 -0.871 0.0 0
M  V30 4 O 0.871 -1.2005 0.0 0 CHG=-1
M  V30 5 C -0.8945 1.2241 0.0 0
M  V30 6 O -2.3894 1.0828 0.0 0
M  V30 7 C -0.2942 2.6012 0.0 0 CFG=2
M  V30 8 N -1.1888 3.8254 0.0 0
M  V30 9 C 1.177 2.766 0.0 0
M  V30 10 C -2.6836 3.6841 0.0 0
M  V30 11 C 2.048 1.5654 0.0 0
M  V30 12 O -3.3075 2.3305 0.0 0
M  V30 13 C -3.5782 4.9082 0.0 0 CFG=2
M  V30 14 C 3.5311 1.5772 0.0 0
M  V30 15 C 1.5772 0.153 0.0 0
M  V30 16 N -5.073 4.767 0.0 0
M  V30 17 C -2.9779 6.2854 0.0 0
M  V30 18 O 4.4021 2.8013 0.0 0
M  V30 19 N 3.9784 0.1647 0.0 0
M  V30 20 C 2.7778 -0.7179 0.0 0
M  V30 21 C -5.9676 5.9911 0.0 0
M  V30 22 C -1.5066 6.4502 0.0 0
M  V30 23 O -5.3673 7.3683 0.0 0
M  V30 24 O -7.4624 5.8499 0.0 0
M  V30 25 C -0.9063 7.8273 0.0 0
M  V30 26 C -0.6356 5.2496 0.0 0
M  V30 27 C -8.357 7.074 0.0 0
M  V30 28 C -7.7567 8.4512 0.0 0
M  V30 29 C -9.8518 6.9328 0.0 0
M  V30 30 C -8.6513 9.6753 0.0 0
M  V30 31 C -10.7464 8.1569 0.0 0
M  V30 32 C -10.1461 9.534 0.0 0
M  V30 33 C -11.0407 10.7582 0.0 0
M  V30 34 C -12.5355 10.6169 0.0 0
M  V30 35 C -13.4301 11.8411 0.0 0
M  V30 END ATOM
M  V30 BEGIN BOND
M  V30 1 2 1 2
M  V30 2 2 1 3
M  V30 3 1 1 4
M  V30 4 1 1 5
M  V30 5 1 5 6
M  V30 6 1 5 7
M  V30 7 1 7 8 CFG=3
M  V30 8 1 7 9
M  V30 9 1 8 10
M  V30 10 1 9 11
M  V30 11 2 10 12
M  V30 12 1 10 13
M  V30 13 1 11 14
M  V30 14 1 11 15
M  V30 15 1 13 16 CFG=3
M  V30 16 1 13 17
M  V30 17 2 14 18
M  V30 18 1 14 19
M  V30 19 1 15 20
M  V30 20 1 16 21
M  V30 21 1 17 22
M  V30 22 2 21 23
M  V30 23 1 21 24
M  V30 24 1 22 25
M  V30 25 1 22 26
M  V30 26 1 24 27
M  V30 27 1 27 28
M  V30 28 1 27 29
M  V30 29 1 28 30
M  V30 30 1 29 31
M  V30 31 1 30 32
M  V30 32 1 32 33
M  V30 33 1 33 34
M  V30 34 1 34 35
M  V30 35 1 19 20
M  V30 36 1 31 32
M  V30 END BOND
M  V30 BEGIN COLLECTION
M  V30 MDLV30/STEABS ATOMS=(2 7 13)
M  V30 END COLLECTION
M  V30 END CTAB
M  END
>  <Ligand InChI>
InChI=1S/C23H41N3O8S/c1-4-5-15-6-8-17(9-7-15)34-23(30)26-18(12-14(2)3)21(28)25-19(22(29)35(31,32)33)13-16-10-11-24-20(16)27/h14-19,22,29H,4-13H2,1-3H3,(H,24,27)(H,25,28)(H,26,30)(H,31,32,33)/p-1/t15?,16?,17?,18-,19-,22?/m1/s1

>  <Ligand InChI Key>
VCQYBHSDNWQLAS-SSAUXNHXSA-M

>  <BindingDB MonomerID>
419124

>  <Target Name Assigned by Curator or DataSource>
Papain-like protease (PLpro)

>  <Target Source Organism According to Curator or DataSource>


>  <IC50 (nM)>
1700

>  <PMID>
32747425

>  <Ligand HET ID in PDB>


>  <PDB ID(s) for Ligand-Target Complex>


>  <PubChem CID>


>  <PubChem SID>


>  <ChEMBL ID of Ligand>


>  <DrugBank ID of Ligand>


>  <ZINC ID of Ligand>


>  <PDB ID(s) of Target Chain>
1Q2W,1QZ8,1UJ1,1UK2,1UK3,1UK4,1UW7,1WOF,1Z1I,2A5A,2A5I,2A5K,2ACF,2AHM,2ALV,2AMD,2AMQ,2BX3,2BX4,2C3S,2D2D,2DUC,2FAV,2FE8,2FYG,2G9T,2GA6,2GDT,2GRI,2GT7,2GT8,2GTB,2GX4,2GZ7,2GZ8,2GZ9,2H2Z,2HOB,2HSX,2IDY,2JZF,2K7X,2K87,2KAF,2LIZ,2OP9,2RNK,2V6N,2VJ1,2XYQ,2XYR,2XYV,2Z3C,2Z3D,2Z3E,2Z94,2Z9G,2Z9J,2Z9K,2Z9L,2ZU4,2ZU5,3D62,3E91,3E9S,3EA7,3EA8,3EBN,3IWM,3M3V,3MJ5,3R24,3SN8,3SNA,3SNB,3SNC,3SND,3SNE,3SZN,3TIT,3TIU,3TNS,3TNT,3V3M,3VB3,3VB4,3VB5,3VB6,3VB7,4MDS,4MM3,4OVZ,4OW0,5C8S,5C8T,5C8U,5F22,5N19,5N5O,5NFY,5TL6,5TL7,5Y3E,5Y3Q,6LNQ,6LNY,6LO0,6NUR,6NUS,6W2A,6W79,6WCO,6XHL,6XHN,6XHO,6XMK,6XOA

>  <Smiles>
CCCC(CC1)CCC1OC(N[C@H](CC(C)C)C(N[C@H](CC(CCN1)C1=O)C(O)S([O-])(=O)=O)=O)=O

$$$$
419126
Actelion Java MolfileCreator 2.0

  0  0  0  0  0  0              0 V3000
M  V30 BEGIN CTAB
M  V30 COUNTS 31 32 0 0 0
M  V30 BEGIN ATOM
M  V30 1 O 0.0 0.0 0.0 0
M  V30 2 C -0.893 -1.1985 0.0 0
M  V30 3 N -0.4465 -2.6086 0.0 0
M  V30 4 C -2.3971 -1.1868 0.0 0
M  V30 5 C -1.6686 -3.4782 0.0 0
M  V30 6 C -2.8671 -2.5969 0.0 0
M  V30 7 C -3.2902 0.0352 0.0 0
M  V30 8 C -4.7825 -0.1057 0.0 0 CFG=1
M  V30 9 N -5.6756 1.1163 0.0 0
M  V30 10 C -5.4053 -1.457 0.0 0
M  V30 11 C -7.1679 0.9753 0.0 0
M  V30 12 O -6.8977 -1.5981 0.0 0
M  V30 13 O -7.7907 -0.376 0.0 0
M  V30 14 C -8.061 2.1973 0.0 0 CFG=2
M  V30 15 N -9.5533 2.0563 0.0 0
M  V30 16 C -7.4617 3.5722 0.0 0
M  V30 17 C -10.4464 3.2784 0.0 0
M  V30 18 C -5.9928 3.7367 0.0 0
M  V30 19 O -9.8471 4.6533 0.0 0
M  V30 20 O -11.9387 3.1374 0.0 0
M  V30 21 C -5.3936 5.1115 0.0 0
M  V30 22 C -5.1233 2.5381 0.0 0
M  V30 23 C -12.8318 4.3595 0.0 0
M  V30 24 C -12.2325 5.7343 0.0 0
M  V30 25 C -14.3241 4.2185 0.0 0
M  V30 26 C -13.1256 6.9564 0.0 0
M  V30 27 C -15.2172 5.4406 0.0 0
M  V30 28 C -14.6179 6.8154 0.0 0
M  V30 29 C -15.511 8.0375 0.0 0
M  V30 30 C -17.0033 7.8965 0.0 0
M  V30 31 C -17.8964 9.1185 0.0 0
M  V30 END ATOM
M  V30 BEGIN BOND
M  V30 1 2 1 2
M  V30 2 1 2 3
M  V30 3 1 2 4
M  V30 4 1 3 5
M  V30 5 1 4 6
M  V30 6 1 4 7
M  V30 7 1 7 8
M  V30 8 1 8 9 CFG=3
M  V30 9 1 8 10
M  V30 10 1 9 11
M  V30 11 2 10 12
M  V30 12 2 11 13
M  V30 13 1 11 14
M  V30 14 1 14 15 CFG=3
M  V30 15 1 14 16
M  V30 16 1 15 17
M  V30 17 1 16 18
M  V30 18 2 17 19
M  V30 19 1 17 20
M  V30 20 1 18 21
M  V30 21 1 18 22
M  V30 22 1 20 23
M  V30 23 1 23 24
M  V30 24 1 23 25
M  V30 25 1 24 26
M  V30 26 1 25 27
M  V30 27 1 26 28
M  V30 28 1 28 29
M  V30 29 1 29 30
M  V30 30 1 30 31
M  V30 31 1 5 6
M  V30 32 1 27 28
M  V30 END BOND
M  V30 BEGIN COLLECTION
M  V30 MDLV30/STEABS ATOMS=(2 8 14)
M  V30 END COLLECTION
M  V30 END CTAB
M  END
>  <Ligand InChI>
InChI=1S/C23H39N3O5/c1-4-5-16-6-8-19(9-7-16)31-23(30)26-20(12-15(2)3)22(29)25-18(14-27)13-17-10-11-24-21(17)28/h14-20H,4-13H2,1-3H3,(H,24,28)(H,25,29)(H,26,30)/t16?,17?,18-,19?,20-/m1/s1

>  <Ligand InChI Key>
BLRXSZOWSREMKN-QLVWAUIISA-N

>  <BindingDB MonomerID>
419126

>  <Target Name Assigned by Curator or DataSource>
Papain-like protease (PLpro)

>  <Target Source Organism According to Curator or DataSource>


>  <IC50 (nM)>
1700

>  <PMID>
32747425

>  <Ligand HET ID in PDB>


>  <PDB ID(s) for Ligand-Target Complex>


>  <PubChem CID>


>  <PubChem SID>


>  <ChEMBL ID of Ligand>


>  <DrugBank ID of Ligand>


>  <ZINC ID of Ligand>


>  <PDB ID(s) of Target Chain>
1Q2W,1QZ8,1UJ1,1UK2,1UK3,1UK4,1UW7,1WOF,1Z1I,2A5A,2A5I,2A5K,2ACF,2AHM,2ALV,2AMD,2AMQ,2BX3,2BX4,2C3S,2D2D,2DUC,2FAV,2FE8,2FYG,2G9T,2GA6,2GDT,2GRI,2GT7,2GT8,2GTB,2GX4,2GZ7,2GZ8,2GZ9,2H2Z,2HOB,2HSX,2IDY,2JZF,2K7X,2K87,2KAF,2LIZ,2OP9,2RNK,2V6N,2VJ1,2XYQ,2XYR,2XYV,2Z3C,2Z3D,2Z3E,2Z94,2Z9G,2Z9J,2Z9K,2Z9L,2ZU4,2ZU5,3D62,3E91,3E9S,3EA7,3EA8,3EBN,3IWM,3M3V,3MJ5,3R24,3SN8,3SNA,3SNB,3SNC,3SND,3SNE,3SZN,3TIT,3TIU,3TNS,3TNT,3V3M,3VB3,3VB4,3VB5,3VB6,3VB7,4MDS,4MM3,4OVZ,4OW0,5C8S,5C8T,5C8U,5F22,5N19,5N5O,5NFY,5TL6,5TL7,5Y3E,5Y3Q,6LNQ,6LNY,6LO0,6NUR,6NUS,6W2A,6W79,6WCO,6XHL,6XHN,6XHO,6XMK,6XOA

>  <Smiles>
CCCC(CC1)CCC1OC(N[C@H](CC(C)C)C(N[C@H](CC(CCN1)C1=O)C=O)=O)=O

$$$$
419127
Actelion Java MolfileCreator 2.0

  0  0  0  0  0  0              0 V3000
M  V30 BEGIN CTAB
M  V30 COUNTS 36 37 0 0 0
M  V30 BEGIN ATOM
M  V30 1 S 0.0 0.0 0.0 0
M  V30 2 O 1.2005 0.8945 0.0 0
M  V30 3 O -1.224 -0.8709 0.0 0
M  V30 4 O 0.8709 -1.2005 0.0 0 CHG=-1
M  V30 5 C -0.8945 1.224 0.0 0
M  V30 6 O -2.3893 1.0828 0.0 0
M  V30 7 C -0.2942 2.6012 0.0 0 CFG=2
M  V30 8 N -1.1887 3.8253 0.0 0
M  V30 9 C 1.177 2.7659 0.0 0
M  V30 10 C -2.6835 3.684 0.0 0
M  V30 11 C 2.048 1.5654 0.0 0
M  V30 12 O -3.3074 2.3304 0.0 0
M  V30 13 C -3.5781 4.9081 0.0 0 CFG=2
M  V30 14 C 3.531 1.5772 0.0 0
M  V30 15 C 1.5772 0.153 0.0 0
M  V30 16 N -5.0729 4.7669 0.0 0
M  V30 17 C -2.9778 6.2852 0.0 0
M  V30 18 O 4.402 2.8012 0.0 0
M  V30 19 N 3.9783 0.1647 0.0 0
M  V30 20 C 2.7777 -0.7179 0.0 0
M  V30 21 C -5.9674 5.991 0.0 0
M  V30 22 C -1.5065 6.45 0.0 0
M  V30 23 O -5.3671 7.3681 0.0 0
M  V30 24 O -7.4622 5.8497 0.0 0
M  V30 25 C -0.9063 7.8271 0.0 0
M  V30 26 C -0.6355 5.2494 0.0 0
M  V30 27 C -8.3568 7.0738 0.0 0
M  V30 28 C -7.7565 8.4509 0.0 0
M  V30 29 C -9.8516 6.9326 0.0 0
M  V30 30 C -8.651 9.675 0.0 0
M  V30 31 C -10.7461 8.1567 0.0 0
M  V30 32 C -10.1458 9.5338 0.0 0
M  V30 33 C -11.0404 10.7579 0.0 0
M  V30 34 C -12.5352 10.6166 0.0 0
M  V30 35 C -13.4297 11.8407 0.0 0
M  V30 36 C -14.9245 11.6995 0.0 0
M  V30 END ATOM
M  V30 BEGIN BOND
M  V30 1 2 1 2
M  V30 2 2 1 3
M  V30 3 1 1 4
M  V30 4 1 1 5
M  V30 5 1 5 6
M  V30 6 1 5 7
M  V30 7 1 7 8 CFG=3
M  V30 8 1 7 9
M  V30 9 1 8 10
M  V30 10 1 9 11
M  V30 11 2 10 12
M  V30 12 1 10 13
M  V30 13 1 11 14
M  V30 14 1 11 15
M  V30 15 1 13 16 CFG=3
M  V30 16 1 13 17
M  V30 17 2 14 18
M  V30 18 1 14 19
M  V30 19 1 15 20
M  V30 20 1 16 21
M  V30 21 1 17 22
M  V30 22 2 21 23
M  V30 23 1 21 24
M  V30 24 1 22 25
M  V30 25 1 22 26
M  V30 26 1 24 27
M  V30 27 1 27 28
M  V30 28 1 27 29
M  V30 29 1 28 30
M  V30 30 1 29 31
M  V30 31 1 30 32
M  V30 32 1 32 33
M  V30 33 1 33 34
M  V30 34 1 34 35
M  V30 35 1 35 36
M  V30 36 1 19 20
M  V30 37 1 31 32
M  V30 END BOND
M  V30 BEGIN COLLECTION
M  V30 MDLV30/STEABS ATOMS=(2 7 13)
M  V30 END COLLECTION
M  V30 END CTAB
M  END
>  <Ligand InChI>
InChI=1S/C24H43N3O8S/c1-4-5-6-16-7-9-18(10-8-16)35-24(31)27-19(13-15(2)3)22(29)26-20(23(30)36(32,33)34)14-17-11-12-25-21(17)28/h15-20,23,30H,4-14H2,1-3H3,(H,25,28)(H,26,29)(H,27,31)(H,32,33,34)/p-1/t16?,17?,18?,19-,20-,23?/m1/s1

>  <Ligand InChI Key>
WKNCKKOHQQLNCY-PTFNDWLJSA-M

>  <BindingDB MonomerID>
419127

>  <Target Name Assigned by Curator or DataSource>
Papain-like protease (PLpro)

>  <Target Source Organism According to Curator or DataSource>


>  <IC50 (nM)>
900

>  <PMID>
32747425

>  <Ligand HET ID in PDB>


>  <PDB ID(s) for Ligand-Target Complex>


>  <PubChem CID>


>  <PubChem SID>


>  <ChEMBL ID of Ligand>


>  <DrugBank ID of Ligand>


>  <ZINC ID of Ligand>


>  <PDB ID(s) of Target Chain>
1Q2W,1QZ8,1UJ1,1UK2,1UK3,1UK4,1UW7,1WOF,1Z1I,2A5A,2A5I,2A5K,2ACF,2AHM,2ALV,2AMD,2AMQ,2BX3,2BX4,2C3S,2D2D,2DUC,2FAV,2FE8,2FYG,2G9T,2GA6,2GDT,2GRI,2GT7,2GT8,2GTB,2GX4,2GZ7,2GZ8,2GZ9,2H2Z,2HOB,2HSX,2IDY,2JZF,2K7X,2K87,2KAF,2LIZ,2OP9,2RNK,2V6N,2VJ1,2XYQ,2XYR,2XYV,2Z3C,2Z3D,2Z3E,2Z94,2Z9G,2Z9J,2Z9K,2Z9L,2ZU4,2ZU5,3D62,3E91,3E9S,3EA7,3EA8,3EBN,3IWM,3M3V,3MJ5,3R24,3SN8,3SNA,3SNB,3SNC,3SND,3SNE,3SZN,3TIT,3TIU,3TNS,3TNT,3V3M,3VB3,3VB4,3VB5,3VB6,3VB7,4MDS,4MM3,4OVZ,4OW0,5C8S,5C8T,5C8U,5F22,5N19,5N5O,5NFY,5TL6,5TL7,5Y3E,5Y3Q,6LNQ,6LNY,6LO0,6NUR,6NUS,6W2A,6W79,6WCO,6XHL,6XHN,6XHO,6XMK,6XOA

>  <Smiles>
CCCCC(CC1)CCC1OC(N[C@H](CC(C)C)C(N[C@H](CC(CCN1)C1=O)C(O)S([O-])(=O)=O)=O)=O

$$$$
419128
Actelion Java MolfileCreator 2.0

  0  0  0  0  0  0              0 V3000
M  V30 BEGIN CTAB
M  V30 COUNTS 32 33 0 0 0
M  V30 BEGIN ATOM
M  V30 1 O 0.0 0.0 0.0 0
M  V30 2 C -0.893 -1.1986 0.0 0
M  V30 3 N -0.4465 -2.6087 0.0 0
M  V30 4 C -2.3972 -1.1868 0.0 0
M  V30 5 C -1.6686 -3.4782 0.0 0
M  V30 6 C -2.8672 -2.5969 0.0 0
M  V30 7 C -3.2902 0.0352 0.0 0
M  V30 8 C -4.7826 -0.1057 0.0 0 CFG=1
M  V30 9 N -5.6757 1.1163 0.0 0
M  V30 10 C -5.4054 -1.4571 0.0 0
M  V30 11 C -7.1681 0.9753 0.0 0
M  V30 12 O -6.8978 -1.5981 0.0 0
M  V30 13 O -7.7909 -0.376 0.0 0
M  V30 14 C -8.0611 2.1974 0.0 0 CFG=2
M  V30 15 N -9.5535 2.0564 0.0 0
M  V30 16 C -7.4618 3.5723 0.0 0
M  V30 17 C -10.4466 3.2785 0.0 0
M  V30 18 C -5.993 3.7368 0.0 0
M  V30 19 O -9.8473 4.6533 0.0 0
M  V30 20 O -11.939 3.1375 0.0 0
M  V30 21 C -5.3937 5.1116 0.0 0
M  V30 22 C -5.1234 2.5382 0.0 0
M  V30 23 C -12.8321 4.3596 0.0 0
M  V30 24 C -12.2327 5.7344 0.0 0
M  V30 25 C -14.3244 4.2186 0.0 0
M  V30 26 C -13.1258 6.9565 0.0 0
M  V30 27 C -15.2175 5.4407 0.0 0
M  V30 28 C -14.6182 6.8155 0.0 0
M  V30 29 C -15.5113 8.0376 0.0 0
M  V30 30 C -17.0037 7.8966 0.0 0
M  V30 31 C -17.8967 9.1187 0.0 0
M  V30 32 C -19.3891 8.9777 0.0 0
M  V30 END ATOM
M  V30 BEGIN BOND
M  V30 1 2 1 2
M  V30 2 1 2 3
M  V30 3 1 2 4
M  V30 4 1 3 5
M  V30 5 1 4 6
M  V30 6 1 4 7
M  V30 7 1 7 8
M  V30 8 1 8 9 CFG=3
M  V30 9 1 8 10
M  V30 10 1 9 11
M  V30 11 2 10 12
M  V30 12 2 11 13
M  V30 13 1 11 14
M  V30 14 1 14 15 CFG=3
M  V30 15 1 14 16
M  V30 16 1 15 17
M  V30 17 1 16 18
M  V30 18 2 17 19
M  V30 19 1 17 20
M  V30 20 1 18 21
M  V30 21 1 18 22
M  V30 22 1 20 23
M  V30 23 1 23 24
M  V30 24 1 23 25
M  V30 25 1 24 26
M  V30 26 1 25 27
M  V30 27 1 26 28
M  V30 28 1 28 29
M  V30 29 1 29 30
M  V30 30 1 30 31
M  V30 31 1 31 32
M  V30 32 1 5 6
M  V30 33 1 27 28
M  V30 END BOND
M  V30 BEGIN COLLECTION
M  V30 MDLV30/STEABS ATOMS=(2 8 14)
M  V30 END COLLECTION
M  V30 END CTAB
M  END
>  <Ligand InChI>
InChI=1S/C24H41N3O5/c1-4-5-6-17-7-9-20(10-8-17)32-24(31)27-21(13-16(2)3)23(30)26-19(15-28)14-18-11-12-25-22(18)29/h15-21H,4-14H2,1-3H3,(H,25,29)(H,26,30)(H,27,31)/t17?,18?,19-,20?,21-/m1/s1

>  <Ligand InChI Key>
FOLCUFKJHSQMEL-VFIVAWKNSA-N

>  <BindingDB MonomerID>
419128

>  <Target Name Assigned by Curator or DataSource>
Papain-like protease (PLpro)

>  <Target Source Organism According to Curator or DataSource>


>  <IC50 (nM)>
1000

>  <PMID>
32747425

>  <Ligand HET ID in PDB>


>  <PDB ID(s) for Ligand-Target Complex>


>  <PubChem CID>


>  <PubChem SID>


>  <ChEMBL ID of Ligand>


>  <DrugBank ID of Ligand>


>  <ZINC ID of Ligand>


>  <PDB ID(s) of Target Chain>
1Q2W,1QZ8,1UJ1,1UK2,1UK3,1UK4,1UW7,1WOF,1Z1I,2A5A,2A5I,2A5K,2ACF,2AHM,2ALV,2AMD,2AMQ,2BX3,2BX4,2C3S,2D2D,2DUC,2FAV,2FE8,2FYG,2G9T,2GA6,2GDT,2GRI,2GT7,2GT8,2GTB,2GX4,2GZ7,2GZ8,2GZ9,2H2Z,2HOB,2HSX,2IDY,2JZF,2K7X,2K87,2KAF,2LIZ,2OP9,2RNK,2V6N,2VJ1,2XYQ,2XYR,2XYV,2Z3C,2Z3D,2Z3E,2Z94,2Z9G,2Z9J,2Z9K,2Z9L,2ZU4,2ZU5,3D62,3E91,3E9S,3EA7,3EA8,3EBN,3IWM,3M3V,3MJ5,3R24,3SN8,3SNA,3SNB,3SNC,3SND,3SNE,3SZN,3TIT,3TIU,3TNS,3TNT,3V3M,3VB3,3VB4,3VB5,3VB6,3VB7,4MDS,4MM3,4OVZ,4OW0,5C8S,5C8T,5C8U,5F22,5N19,5N5O,5NFY,5TL6,5TL7,5Y3E,5Y3Q,6LNQ,6LNY,6LO0,6NUR,6NUS,6W2A,6W79,6WCO,6XHL,6XHN,6XHO,6XMK,6XOA

>  <Smiles>
CCCCC(CC1)CCC1OC(N[C@H](CC(C)C)C(N[C@H](CC(CCN1)C1=O)C=O)=O)=O

$$$$
419129
Actelion Java MolfileCreator 2.0

  0  0  0  0  0  0              0 V3000
M  V30 BEGIN CTAB
M  V30 COUNTS 34 35 0 0 0
M  V30 BEGIN ATOM
M  V30 1 S 0.0 0.0 0.0 0
M  V30 2 O 1.2008 0.8947 0.0 0
M  V30 3 O -1.2244 -0.8712 0.0 0
M  V30 4 O 0.8712 -1.2008 0.0 0 CHG=-1
M  V30 5 C -0.8947 1.2244 0.0 0
M  V30 6 O -2.3899 1.0831 0.0 0
M  V30 7 C -0.2943 2.6019 0.0 0 CFG=2
M  V30 8 N -1.1891 3.8263 0.0 0
M  V30 9 C 1.1773 2.7667 0.0 0
M  V30 10 C -2.6843 3.685 0.0 0
M  V30 11 C 2.0485 1.5658 0.0 0
M  V30 12 O -3.3083 2.3311 0.0 0
M  V30 13 C -3.5791 4.9094 0.0 0 CFG=2
M  V30 14 C 3.532 1.5776 0.0 0
M  V30 15 C 1.5776 0.153 0.0 0
M  V30 16 N -5.0743 4.7682 0.0 0
M  V30 17 C -2.9786 6.2869 0.0 0
M  V30 18 O 4.4032 2.802 0.0 0
M  V30 19 N 3.9793 0.1648 0.0 0
M  V30 20 C 2.7785 -0.7181 0.0 0
M  V30 21 C -5.969 5.9926 0.0 0
M  V30 22 C -1.5069 6.4517 0.0 0
M  V30 23 O -5.3686 7.3701 0.0 0
M  V30 24 O -7.4643 5.8513 0.0 0
M  V30 25 C -0.9065 7.8292 0.0 0
M  V30 26 C -0.6357 5.2509 0.0 0
M  V30 27 C -8.359 7.0757 0.0 0
M  V30 28 C -7.7586 8.4532 0.0 0
M  V30 29 C -9.8542 6.9345 0.0 0
M  V30 30 C -8.6534 9.6776 0.0 0
M  V30 31 C -10.749 8.1589 0.0 0
M  V30 32 C -10.1486 9.5364 0.0 0
M  V30 33 F -9.7012 10.9727 0.0 0
M  V30 34 F -11.5614 10.0897 0.0 0
M  V30 END ATOM
M  V30 BEGIN BOND
M  V30 1 2 1 2
M  V30 2 2 1 3
M  V30 3 1 1 4
M  V30 4 1 1 5
M  V30 5 1 5 6
M  V30 6 1 5 7
M  V30 7 1 7 8 CFG=3
M  V30 8 1 7 9
M  V30 9 1 8 10
M  V30 10 1 9 11
M  V30 11 2 10 12
M  V30 12 1 10 13
M  V30 13 1 11 14
M  V30 14 1 11 15
M  V30 15 1 13 16 CFG=3
M  V30 16 1 13 17
M  V30 17 2 14 18
M  V30 18 1 14 19
M  V30 19 1 15 20
M  V30 20 1 16 21
M  V30 21 1 17 22
M  V30 22 2 21 23
M  V30 23 1 21 24
M  V30 24 1 22 25
M  V30 25 1 22 26
M  V30 26 1 24 27
M  V30 27 1 27 28
M  V30 28 1 27 29
M  V30 29 1 28 30
M  V30 30 1 29 31
M  V30 31 1 30 32
M  V30 32 1 32 33
M  V30 33 1 32 34
M  V30 34 1 19 20
M  V30 35 1 31 32
M  V30 END BOND
M  V30 BEGIN COLLECTION
M  V30 MDLV30/STEABS ATOMS=(2 7 13)
M  V30 END COLLECTION
M  V30 END CTAB
M  END
>  <Ligand InChI>
InChI=1S/C20H33F2N3O8S/c1-11(2)9-14(25-19(29)33-13-3-6-20(21,22)7-4-13)17(27)24-15(18(28)34(30,31)32)10-12-5-8-23-16(12)26/h11-15,18,28H,3-10H2,1-2H3,(H,23,26)(H,24,27)(H,25,29)(H,30,31,32)/p-1/t12?,14-,15-,18?/m1/s1

>  <Ligand InChI Key>
MODFCHUDBQIQAH-HBSJQHRPSA-M

>  <BindingDB MonomerID>
419129

>  <Target Name Assigned by Curator or DataSource>
Papain-like protease (PLpro)

>  <Target Source Organism According to Curator or DataSource>


>  <IC50 (nM)>
2300

>  <PMID>
32747425

>  <Ligand HET ID in PDB>


>  <PDB ID(s) for Ligand-Target Complex>


>  <PubChem CID>


>  <PubChem SID>


>  <ChEMBL ID of Ligand>


>  <DrugBank ID of Ligand>


>  <ZINC ID of Ligand>


>  <PDB ID(s) of Target Chain>
1Q2W,1QZ8,1UJ1,1UK2,1UK3,1UK4,1UW7,1WOF,1Z1I,2A5A,2A5I,2A5K,2ACF,2AHM,2ALV,2AMD,2AMQ,2BX3,2BX4,2C3S,2D2D,2DUC,2FAV,2FE8,2FYG,2G9T,2GA6,2GDT,2GRI,2GT7,2GT8,2GTB,2GX4,2GZ7,2GZ8,2GZ9,2H2Z,2HOB,2HSX,2IDY,2JZF,2K7X,2K87,2KAF,2LIZ,2OP9,2RNK,2V6N,2VJ1,2XYQ,2XYR,2XYV,2Z3C,2Z3D,2Z3E,2Z94,2Z9G,2Z9J,2Z9K,2Z9L,2ZU4,2ZU5,3D62,3E91,3E9S,3EA7,3EA8,3EBN,3IWM,3M3V,3MJ5,3R24,3SN8,3SNA,3SNB,3SNC,3SND,3SNE,3SZN,3TIT,3TIU,3TNS,3TNT,3V3M,3VB3,3VB4,3VB5,3VB6,3VB7,4MDS,4MM3,4OVZ,4OW0,5C8S,5C8T,5C8U,5F22,5N19,5N5O,5NFY,5TL6,5TL7,5Y3E,5Y3Q,6LNQ,6LNY,6LO0,6NUR,6NUS,6W2A,6W79,6WCO,6XHL,6XHN,6XHO,6XMK,6XOA

>  <Smiles>
CC(C)C[C@H](C(N[C@H](CC(CCN1)C1=O)C(O)S([O-])(=O)=O)=O)NC(OC(CC1)CCC1(F)F)=O

$$$$
419130
Actelion Java MolfileCreator 2.0

  0  0  0  0  0  0              0 V3000
M  V30 BEGIN CTAB
M  V30 COUNTS 30 31 0 0 0
M  V30 BEGIN ATOM
M  V30 1 F 0.0 0.0 0.0 0
M  V30 2 C -0.6288 -1.3644 0.0 0
M  V30 3 F -2.0169 -0.7355 0.0 0
M  V30 4 C 0.8542 -1.1983 0.0 0
M  V30 5 C -1.2576 -2.7288 0.0 0
M  V30 6 C 1.7322 -2.4084 0.0 0
M  V30 7 C -0.3796 -3.939 0.0 0
M  V30 8 C 1.1033 -3.7729 0.0 0
M  V30 9 O 1.9813 -4.983 0.0 0
M  V30 10 C 3.4644 -4.8169 0.0 0
M  V30 11 O 4.0695 -3.4288 0.0 0
M  V30 12 N 4.3423 -6.0271 0.0 0
M  V30 13 C 5.8254 -5.861 0.0 0 CFG=1
M  V30 14 C 6.7034 -7.0712 0.0 0
M  V30 15 C 6.4305 -4.4729 0.0 0
M  V30 16 O 6.0746 -8.4356 0.0 0
M  V30 17 N 8.1864 -6.9051 0.0 0
M  V30 18 C 7.9136 -4.3068 0.0 0
M  V30 19 C 9.0644 -8.1153 0.0 0 CFG=1
M  V30 20 C 8.5186 -2.9186 0.0 0
M  V30 21 C 8.7915 -5.5169 0.0 0
M  V30 22 C 8.4356 -9.4797 0.0 0
M  V30 23 C 10.5475 -7.9492 0.0 0
M  V30 24 O 6.9288 -9.622 0.0 0
M  V30 25 C 11.4254 -9.1593 0.0 0
M  V30 26 C 12.9204 -9.1475 0.0 0
M  V30 27 C 10.9509 -10.5831 0.0 0
M  V30 28 O 13.7983 -7.9136 0.0 0
M  V30 29 N 13.3712 -10.5712 0.0 0
M  V30 30 C 12.161 -11.461 0.0 0
M  V30 END ATOM
M  V30 BEGIN BOND
M  V30 1 1 1 2
M  V30 2 1 2 3
M  V30 3 1 2 4
M  V30 4 1 2 5
M  V30 5 1 4 6
M  V30 6 1 5 7
M  V30 7 1 6 8
M  V30 8 1 8 9
M  V30 9 1 9 10
M  V30 10 2 10 11
M  V30 11 1 10 12
M  V30 12 1 13 12 CFG=3
M  V30 13 1 13 14
M  V30 14 1 13 15
M  V30 15 2 14 16
M  V30 16 1 14 17
M  V30 17 1 15 18
M  V30 18 1 19 17 CFG=3
M  V30 19 1 18 20
M  V30 20 1 18 21
M  V30 21 1 19 22
M  V30 22 1 19 23
M  V30 23 2 22 24
M  V30 24 1 23 25
M  V30 25 1 25 26
M  V30 26 1 25 27
M  V30 27 2 26 28
M  V30 28 1 26 29
M  V30 29 1 27 30
M  V30 30 1 7 8
M  V30 31 1 29 30
M  V30 END BOND
M  V30 BEGIN COLLECTION
M  V30 MDLV30/STEABS ATOMS=(2 13 19)
M  V30 END COLLECTION
M  V30 END CTAB
M  END
>  <Ligand InChI>
InChI=1S/C20H31F2N3O5/c1-12(2)9-16(25-19(29)30-15-3-6-20(21,22)7-4-15)18(28)24-14(11-26)10-13-5-8-23-17(13)27/h11-16H,3-10H2,1-2H3,(H,23,27)(H,24,28)(H,25,29)/t13?,14-,16-/m1/s1

>  <Ligand InChI Key>
PHUZMTSQHVZDOX-IGLHTZBQSA-N

>  <BindingDB MonomerID>
419130

>  <Target Name Assigned by Curator or DataSource>
Papain-like protease (PLpro)

>  <Target Source Organism According to Curator or DataSource>


>  <IC50 (nM)>
2200

>  <PMID>
32747425

>  <Ligand HET ID in PDB>


>  <PDB ID(s) for Ligand-Target Complex>


>  <PubChem CID>


>  <PubChem SID>


>  <ChEMBL ID of Ligand>


>  <DrugBank ID of Ligand>


>  <ZINC ID of Ligand>


>  <PDB ID(s) of Target Chain>
1Q2W,1QZ8,1UJ1,1UK2,1UK3,1UK4,1UW7,1WOF,1Z1I,2A5A,2A5I,2A5K,2ACF,2AHM,2ALV,2AMD,2AMQ,2BX3,2BX4,2C3S,2D2D,2DUC,2FAV,2FE8,2FYG,2G9T,2GA6,2GDT,2GRI,2GT7,2GT8,2GTB,2GX4,2GZ7,2GZ8,2GZ9,2H2Z,2HOB,2HSX,2IDY,2JZF,2K7X,2K87,2KAF,2LIZ,2OP9,2RNK,2V6N,2VJ1,2XYQ,2XYR,2XYV,2Z3C,2Z3D,2Z3E,2Z94,2Z9G,2Z9J,2Z9K,2Z9L,2ZU4,2ZU5,3D62,3E91,3E9S,3EA7,3EA8,3EBN,3IWM,3M3V,3MJ5,3R24,3SN8,3SNA,3SNB,3SNC,3SND,3SNE,3SZN,3TIT,3TIU,3TNS,3TNT,3V3M,3VB3,3VB4,3VB5,3VB6,3VB7,4MDS,4MM3,4OVZ,4OW0,5C8S,5C8T,5C8U,5F22,5N19,5N5O,5NFY,5TL6,5TL7,5Y3E,5Y3Q,6LNQ,6LNY,6LO0,6NUR,6NUS,6W2A,6W79,6WCO,6XHL,6XHN,6XHO,6XMK,6XOA

>  <Smiles>
CC(C)C[C@H](C(N[C@H](CC(CCN1)C1=O)C=O)=O)NC(OC(CC1)CCC1(F)F)=O

$$$$
419131
Actelion Java MolfileCreator 2.0

  0  0  0  0  0  0              0 V3000
M  V30 BEGIN CTAB
M  V30 COUNTS 35 36 0 0 0
M  V30 BEGIN ATOM
M  V30 1 S 0.0 0.0 0.0 0
M  V30 2 O 1.2015 0.8952 0.0 0
M  V30 3 O -1.2251 -0.8717 0.0 0
M  V30 4 O 0.8717 -1.2015 0.0 0 CHG=-1
M  V30 5 C -0.8952 1.2251 0.0 0
M  V30 6 O -2.3913 1.0837 0.0 0
M  V30 7 C -0.2945 2.6034 0.0 0 CFG=2
M  V30 8 N -1.1898 3.8285 0.0 0
M  V30 9 C 1.178 2.7683 0.0 0
M  V30 10 C -2.6858 3.6872 0.0 0
M  V30 11 C 2.0497 1.5667 0.0 0
M  V30 12 O -3.3102 2.3324 0.0 0
M  V30 13 C -3.5811 4.9123 0.0 0 CFG=2
M  V30 14 C 3.534 1.5785 0.0 0
M  V30 15 C 1.5785 0.1531 0.0 0
M  V30 16 N -5.0772 4.7709 0.0 0
M  V30 17 C -2.9804 6.2906 0.0 0
M  V30 18 O 4.4058 2.8036 0.0 0
M  V30 19 N 3.9817 0.1649 0.0 0
M  V30 20 C 2.7801 -0.7185 0.0 0
M  V30 21 C -5.9725 5.9961 0.0 0
M  V30 22 C -1.5078 6.4555 0.0 0
M  V30 23 O -5.3717 7.3744 0.0 0
M  V30 24 O -7.4686 5.8547 0.0 0
M  V30 25 C -0.907 7.8338 0.0 0
M  V30 26 C -0.6361 5.2539 0.0 0
M  V30 27 C -8.3639 7.0799 0.0 0
M  V30 28 C -9.86 6.9385 0.0 0
M  V30 29 C -10.7553 8.1637 0.0 0
M  V30 30 C -10.4844 5.5838 0.0 0
M  V30 31 C -12.2514 8.0223 0.0 0
M  V30 32 C -11.9805 5.4424 0.0 0
M  V30 33 C -12.8758 6.6676 0.0 0
M  V30 34 F -13.771 5.466 0.0 0
M  V30 35 F -14.1834 7.4333 0.0 0
M  V30 END ATOM
M  V30 BEGIN BOND
M  V30 1 2 1 2
M  V30 2 2 1 3
M  V30 3 1 1 4
M  V30 4 1 1 5
M  V30 5 1 5 6
M  V30 6 1 5 7
M  V30 7 1 7 8 CFG=3
M  V30 8 1 7 9
M  V30 9 1 8 10
M  V30 10 1 9 11
M  V30 11 2 10 12
M  V30 12 1 10 13
M  V30 13 1 11 14
M  V30 14 1 11 15
M  V30 15 1 13 16 CFG=3
M  V30 16 1 13 17
M  V30 17 2 14 18
M  V30 18 1 14 19
M  V30 19 1 15 20
M  V30 20 1 16 21
M  V30 21 1 17 22
M  V30 22 2 21 23
M  V30 23 1 21 24
M  V30 24 1 22 25
M  V30 25 1 22 26
M  V30 26 1 24 27
M  V30 27 1 27 28
M  V30 28 1 28 29
M  V30 29 1 28 30
M  V30 30 1 29 31
M  V30 31 1 30 32
M  V30 32 1 31 33
M  V30 33 1 33 34
M  V30 34 1 33 35
M  V30 35 1 19 20
M  V30 36 1 32 33
M  V30 END BOND
M  V30 BEGIN COLLECTION
M  V30 MDLV30/STEABS ATOMS=(2 7 13)
M  V30 END COLLECTION
M  V30 END CTAB
M  END
>  <Ligand InChI>
InChI=1S/C21H35F2N3O8S/c1-12(2)9-15(26-20(30)34-11-13-3-6-21(22,23)7-4-13)18(28)25-16(19(29)35(31,32)33)10-14-5-8-24-17(14)27/h12-16,19,29H,3-11H2,1-2H3,(H,24,27)(H,25,28)(H,26,30)(H,31,32,33)/p-1/t14?,15-,16-,19?/m1/s1

>  <Ligand InChI Key>
BHZBRFONZANPNK-BWRBCVJASA-M

>  <BindingDB MonomerID>
419131

>  <Target Name Assigned by Curator or DataSource>
Papain-like protease (PLpro)

>  <Target Source Organism According to Curator or DataSource>


>  <IC50 (nM)>
1200

>  <PMID>
32747425

>  <Ligand HET ID in PDB>


>  <PDB ID(s) for Ligand-Target Complex>


>  <PubChem CID>


>  <PubChem SID>


>  <ChEMBL ID of Ligand>


>  <DrugBank ID of Ligand>


>  <ZINC ID of Ligand>


>  <PDB ID(s) of Target Chain>
1Q2W,1QZ8,1UJ1,1UK2,1UK3,1UK4,1UW7,1WOF,1Z1I,2A5A,2A5I,2A5K,2ACF,2AHM,2ALV,2AMD,2AMQ,2BX3,2BX4,2C3S,2D2D,2DUC,2FAV,2FE8,2FYG,2G9T,2GA6,2GDT,2GRI,2GT7,2GT8,2GTB,2GX4,2GZ7,2GZ8,2GZ9,2H2Z,2HOB,2HSX,2IDY,2JZF,2K7X,2K87,2KAF,2LIZ,2OP9,2RNK,2V6N,2VJ1,2XYQ,2XYR,2XYV,2Z3C,2Z3D,2Z3E,2Z94,2Z9G,2Z9J,2Z9K,2Z9L,2ZU4,2ZU5,3D62,3E91,3E9S,3EA7,3EA8,3EBN,3IWM,3M3V,3MJ5,3R24,3SN8,3SNA,3SNB,3SNC,3SND,3SNE,3SZN,3TIT,3TIU,3TNS,3TNT,3V3M,3VB3,3VB4,3VB5,3VB6,3VB7,4MDS,4MM3,4OVZ,4OW0,5C8S,5C8T,5C8U,5F22,5N19,5N5O,5NFY,5TL6,5TL7,5Y3E,5Y3Q,6LNQ,6LNY,6LO0,6NUR,6NUS,6W2A,6W79,6WCO,6XHL,6XHN,6XHO,6XMK,6XOA

>  <Smiles>
CC(C)C[C@H](C(N[C@H](CC(CCN1)C1=O)C(O)S([O-])(=O)=O)=O)NC(OCC(CC1)CCC1(F)F)=O

$$$$
419131
Actelion Java MolfileCreator 2.0

  0  0  0  0  0  0              0 V3000
M  V30 BEGIN CTAB
M  V30 COUNTS 35 36 0 0 0
M  V30 BEGIN ATOM
M  V30 1 S 0.0 0.0 0.0 0
M  V30 2 O 1.2015 0.8952 0.0 0
M  V30 3 O -1.2251 -0.8717 0.0 0
M  V30 4 O 0.8717 -1.2015 0.0 0 CHG=-1
M  V30 5 C -0.8952 1.2251 0.0 0
M  V30 6 O -2.3913 1.0837 0.0 0
M  V30 7 C -0.2945 2.6034 0.0 0 CFG=2
M  V30 8 N -1.1898 3.8285 0.0 0
M  V30 9 C 1.178 2.7683 0.0 0
M  V30 10 C -2.6858 3.6872 0.0 0
M  V30 11 C 2.0497 1.5667 0.0 0
M  V30 12 O -3.3102 2.3324 0.0 0
M  V30 13 C -3.5811 4.9123 0.0 0 CFG=2
M  V30 14 C 3.534 1.5785 0.0 0
M  V30 15 C 1.5785 0.1531 0.0 0
M  V30 16 N -5.0772 4.7709 0.0 0
M  V30 17 C -2.9804 6.2906 0.0 0
M  V30 18 O 4.4058 2.8036 0.0 0
M  V30 19 N 3.9817 0.1649 0.0 0
M  V30 20 C 2.7801 -0.7185 0.0 0
M  V30 21 C -5.9725 5.9961 0.0 0
M  V30 22 C -1.5078 6.4555 0.0 0
M  V30 23 O -5.3717 7.3744 0.0 0
M  V30 24 O -7.4686 5.8547 0.0 0
M  V30 25 C -0.907 7.8338 0.0 0
M  V30 26 C -0.6361 5.2539 0.0 0
M  V30 27 C -8.3639 7.0799 0.0 0
M  V30 28 C -9.86 6.9385 0.0 0
M  V30 29 C -10.7553 8.1637 0.0 0
M  V30 30 C -10.4844 5.5838 0.0 0
M  V30 31 C -12.2514 8.0223 0.0 0
M  V30 32 C -11.9805 5.4424 0.0 0
M  V30 33 C -12.8758 6.6676 0.0 0
M  V30 34 F -13.771 5.466 0.0 0
M  V30 35 F -14.1834 7.4333 0.0 0
M  V30 END ATOM
M  V30 BEGIN BOND
M  V30 1 2 1 2
M  V30 2 2 1 3
M  V30 3 1 1 4
M  V30 4 1 1 5
M  V30 5 1 5 6
M  V30 6 1 5 7
M  V30 7 1 7 8 CFG=3
M  V30 8 1 7 9
M  V30 9 1 8 10
M  V30 10 1 9 11
M  V30 11 2 10 12
M  V30 12 1 10 13
M  V30 13 1 11 14
M  V30 14 1 11 15
M  V30 15 1 13 16 CFG=3
M  V30 16 1 13 17
M  V30 17 2 14 18
M  V30 18 1 14 19
M  V30 19 1 15 20
M  V30 20 1 16 21
M  V30 21 1 17 22
M  V30 22 2 21 23
M  V30 23 1 21 24
M  V30 24 1 22 25
M  V30 25 1 22 26
M  V30 26 1 24 27
M  V30 27 1 27 28
M  V30 28 1 28 29
M  V30 29 1 28 30
M  V30 30 1 29 31
M  V30 31 1 30 32
M  V30 32 1 31 33
M  V30 33 1 33 34
M  V30 34 1 33 35
M  V30 35 1 19 20
M  V30 36 1 32 33
M  V30 END BOND
M  V30 BEGIN COLLECTION
M  V30 MDLV30/STEABS ATOMS=(2 7 13)
M  V30 END COLLECTION
M  V30 END CTAB
M  END
>  <Ligand InChI>
InChI=1S/C21H35F2N3O8S/c1-12(2)9-15(26-20(30)34-11-13-3-6-21(22,23)7-4-13)18(28)25-16(19(29)35(31,32)33)10-14-5-8-24-17(14)27/h12-16,19,29H,3-11H2,1-2H3,(H,24,27)(H,25,28)(H,26,30)(H,31,32,33)/p-1/t14?,15-,16-,19?/m1/s1

>  <Ligand InChI Key>
BHZBRFONZANPNK-BWRBCVJASA-M

>  <BindingDB MonomerID>
419131

>  <Target Name Assigned by Curator or DataSource>
Papain-like protease (PLpro)

>  <Target Source Organism According to Curator or DataSource>


>  <IC50 (nM)>
1100

>  <PMID>
32747425

>  <Ligand HET ID in PDB>


>  <PDB ID(s) for Ligand-Target Complex>


>  <PubChem CID>


>  <PubChem SID>


>  <ChEMBL ID of Ligand>


>  <DrugBank ID of Ligand>


>  <ZINC ID of Ligand>


>  <PDB ID(s) of Target Chain>
1Q2W,1QZ8,1UJ1,1UK2,1UK3,1UK4,1UW7,1WOF,1Z1I,2A5A,2A5I,2A5K,2ACF,2AHM,2ALV,2AMD,2AMQ,2BX3,2BX4,2C3S,2D2D,2DUC,2FAV,2FE8,2FYG,2G9T,2GA6,2GDT,2GRI,2GT7,2GT8,2GTB,2GX4,2GZ7,2GZ8,2GZ9,2H2Z,2HOB,2HSX,2IDY,2JZF,2K7X,2K87,2KAF,2LIZ,2OP9,2RNK,2V6N,2VJ1,2XYQ,2XYR,2XYV,2Z3C,2Z3D,2Z3E,2Z94,2Z9G,2Z9J,2Z9K,2Z9L,2ZU4,2ZU5,3D62,3E91,3E9S,3EA7,3EA8,3EBN,3IWM,3M3V,3MJ5,3R24,3SN8,3SNA,3SNB,3SNC,3SND,3SNE,3SZN,3TIT,3TIU,3TNS,3TNT,3V3M,3VB3,3VB4,3VB5,3VB6,3VB7,4MDS,4MM3,4OVZ,4OW0,5C8S,5C8T,5C8U,5F22,5N19,5N5O,5NFY,5TL6,5TL7,5Y3E,5Y3Q,6LNQ,6LNY,6LO0,6NUR,6NUS,6W2A,6W79,6WCO,6XHL,6XHN,6XHO,6XMK,6XOA

>  <Smiles>
CC(C)C[C@H](C(N[C@H](CC(CCN1)C1=O)C(O)S([O-])(=O)=O)=O)NC(OCC(CC1)CCC1(F)F)=O

$$$$
419133
Actelion Java MolfileCreator 2.0

  0  0  0  0  0  0              0 V3000
M  V30 BEGIN CTAB
M  V30 COUNTS 33 34 0 0 0
M  V30 BEGIN ATOM
M  V30 1 S 0.0 0.0 0.0 0
M  V30 2 O 1.2019 0.8955 0.0 0
M  V30 3 O -1.2254 -0.8719 0.0 0
M  V30 4 O 0.8719 -1.2019 0.0 0 CHG=-1
M  V30 5 C -0.8955 1.2254 0.0 0
M  V30 6 O -2.392 1.084 0.0 0
M  V30 7 C -0.2945 2.6041 0.0 0 CFG=2
M  V30 8 N -1.1901 3.8296 0.0 0
M  V30 9 C 1.1783 2.7691 0.0 0
M  V30 10 C -2.6866 3.6882 0.0 0
M  V30 11 C 2.0503 1.5671 0.0 0
M  V30 12 O -3.3111 2.3331 0.0 0
M  V30 13 C -3.5821 4.9136 0.0 0 CFG=2
M  V30 14 C 3.535 1.5789 0.0 0
M  V30 15 C 1.5789 0.1531 0.0 0
M  V30 16 N -5.0786 4.7722 0.0 0
M  V30 17 C -2.9812 6.2923 0.0 0
M  V30 18 O 4.4069 2.8044 0.0 0
M  V30 19 N 3.9827 0.1649 0.0 0
M  V30 20 C 2.7808 -0.7187 0.0 0
M  V30 21 C -5.9741 5.9977 0.0 0
M  V30 22 C -1.5082 6.4573 0.0 0
M  V30 23 O -5.3732 7.3764 0.0 0
M  V30 24 O -7.4706 5.8563 0.0 0
M  V30 25 C -0.9073 7.8359 0.0 0
M  V30 26 C -0.6363 5.2554 0.0 0
M  V30 27 C -8.3662 7.0818 0.0 0
M  V30 28 C -9.8627 6.9404 0.0 0
M  V30 29 C -10.7582 8.1659 0.0 0
M  V30 30 C -10.4872 5.5853 0.0 0
M  V30 31 C -12.2547 8.0245 0.0 0
M  V30 32 C -11.9837 5.4439 0.0 0
M  V30 33 C -12.8792 6.6694 0.0 0
M  V30 END ATOM
M  V30 BEGIN BOND
M  V30 1 2 1 2
M  V30 2 2 1 3
M  V30 3 1 1 4
M  V30 4 1 1 5
M  V30 5 1 5 6
M  V30 6 1 5 7
M  V30 7 1 7 8 CFG=3
M  V30 8 1 7 9
M  V30 9 1 8 10
M  V30 10 1 9 11
M  V30 11 2 10 12
M  V30 12 1 10 13
M  V30 13 1 11 14
M  V30 14 1 11 15
M  V30 15 1 13 16 CFG=3
M  V30 16 1 13 17
M  V30 17 2 14 18
M  V30 18 1 14 19
M  V30 19 1 15 20
M  V30 20 1 16 21
M  V30 21 1 17 22
M  V30 22 2 21 23
M  V30 23 1 21 24
M  V30 24 1 22 25
M  V30 25 1 22 26
M  V30 26 1 24 27
M  V30 27 1 27 28
M  V30 28 2 28 29
M  V30 29 1 28 30
M  V30 30 1 29 31
M  V30 31 2 30 32
M  V30 32 2 31 33
M  V30 33 1 19 20
M  V30 34 1 32 33
M  V30 END BOND
M  V30 BEGIN COLLECTION
M  V30 MDLV30/STEABS ATOMS=(2 7 13)
M  V30 END COLLECTION
M  V30 END CTAB
M  END
>  <Ligand InChI>
InChI=1S/C21H31N3O8S/c1-13(2)10-16(24-21(28)32-12-14-6-4-3-5-7-14)19(26)23-17(20(27)33(29,30)31)11-15-8-9-22-18(15)25/h3-7,13,15-17,20,27H,8-12H2,1-2H3,(H,22,25)(H,23,26)(H,24,28)(H,29,30,31)/p-1/t15?,16-,17-,20?/m1/s1

>  <Ligand InChI Key>
BSPZFJDYQHDZNR-MUZJZNNISA-M

>  <BindingDB MonomerID>
419133

>  <Target Name Assigned by Curator or DataSource>
Papain-like protease (PLpro)

>  <Target Source Organism According to Curator or DataSource>


>  <IC50 (nM)>
2200

>  <PMID>
32747425

>  <Ligand HET ID in PDB>


>  <PDB ID(s) for Ligand-Target Complex>


>  <PubChem CID>


>  <PubChem SID>


>  <ChEMBL ID of Ligand>


>  <DrugBank ID of Ligand>


>  <ZINC ID of Ligand>


>  <PDB ID(s) of Target Chain>
1Q2W,1QZ8,1UJ1,1UK2,1UK3,1UK4,1UW7,1WOF,1Z1I,2A5A,2A5I,2A5K,2ACF,2AHM,2ALV,2AMD,2AMQ,2BX3,2BX4,2C3S,2D2D,2DUC,2FAV,2FE8,2FYG,2G9T,2GA6,2GDT,2GRI,2GT7,2GT8,2GTB,2GX4,2GZ7,2GZ8,2GZ9,2H2Z,2HOB,2HSX,2IDY,2JZF,2K7X,2K87,2KAF,2LIZ,2OP9,2RNK,2V6N,2VJ1,2XYQ,2XYR,2XYV,2Z3C,2Z3D,2Z3E,2Z94,2Z9G,2Z9J,2Z9K,2Z9L,2ZU4,2ZU5,3D62,3E91,3E9S,3EA7,3EA8,3EBN,3IWM,3M3V,3MJ5,3R24,3SN8,3SNA,3SNB,3SNC,3SND,3SNE,3SZN,3TIT,3TIU,3TNS,3TNT,3V3M,3VB3,3VB4,3VB5,3VB6,3VB7,4MDS,4MM3,4OVZ,4OW0,5C8S,5C8T,5C8U,5F22,5N19,5N5O,5NFY,5TL6,5TL7,5Y3E,5Y3Q,6LNQ,6LNY,6LO0,6NUR,6NUS,6W2A,6W79,6WCO,6XHL,6XHN,6XHO,6XMK,6XOA

>  <Smiles>
CC(C)C[C@H](C(N[C@H](CC(CCN1)C1=O)C(O)S([O-])(=O)=O)=O)NC(OCc1ccccc1)=O

$$$$
420337
Actelion Java MolfileCreator 2.0

  0  0  0  0  0  0              0 V3000
M  V30 BEGIN CTAB
M  V30 COUNTS 43 47 0 0 0
M  V30 BEGIN ATOM
M  V30 1 F 0.0 0.0 0.0 0
M  V30 2 C -1.3083 0.7543 0.0 0
M  V30 3 C -1.3201 2.263 0.0 0
M  V30 4 C -2.6166 0.0235 0.0 0
M  V30 5 C -2.6284 3.0174 0.0 0
M  V30 6 C -3.925 0.7779 0.0 0
M  V30 7 C -3.9367 2.2866 0.0 0
M  V30 8 C -2.6402 4.5261 0.0 0 CFG=1
M  V30 9 N -3.9485 5.2804 0.0 0
M  V30 10 C -1.3554 5.2804 0.0 0
M  V30 11 C -3.9603 6.7892 0.0 0
M  V30 12 C -5.2569 4.5497 0.0 0
M  V30 13 O -1.3672 6.7892 0.0 0
M  V30 14 N -0.0707 4.5497 0.0 0
M  V30 15 C -2.6756 7.5435 0.0 0
M  V30 16 C -5.2687 7.5435 0.0 0
M  V30 17 O -5.2687 3.0645 0.0 0
M  V30 18 C -6.5652 5.304 0.0 0
M  V30 19 C 1.214 5.304 0.0 0
M  V30 20 C -2.6873 9.0522 0.0 0
M  V30 21 C -5.2804 9.0522 0.0 0
M  V30 22 N -7.8735 4.5732 0.0 0
M  V30 23 C 2.4988 4.5732 0.0 0
M  V30 24 C -3.9957 9.8066 0.0 0
M  V30 25 N -8.0386 3.0999 0.0 0
M  V30 26 C -9.2526 5.1979 0.0 0
M  V30 27 C 2.487 3.0881 0.0 0
M  V30 28 C 3.7835 5.3276 0.0 0
M  V30 29 N -4.0075 11.3153 0.0 0
M  V30 30 N -9.5119 2.8052 0.0 0
M  V30 31 C -10.2663 4.1018 0.0 0
M  V30 32 C -9.7241 6.6359 0.0 0
M  V30 33 C 3.7717 2.3455 0.0 0
M  V30 34 C 5.0683 4.5968 0.0 0
M  V30 35 C -5.3158 12.0696 0.0 0
M  V30 36 C -11.7396 4.42 0.0 0
M  V30 37 C -11.1974 6.9542 0.0 0
M  V30 38 C 5.0565 3.0999 0.0 0
M  V30 39 O -5.3276 13.5784 0.0 0
M  V30 40 C -6.6241 11.3389 0.0 0
M  V30 41 C -12.2111 5.858 0.0 0
M  V30 42 C -7.9325 12.0932 0.0 0
M  V30 43 C -6.6359 9.8537 0.0 0
M  V30 END ATOM
M  V30 BEGIN BOND
M  V30 1 1 1 2
M  V30 2 2 2 3
M  V30 3 1 2 4
M  V30 4 1 3 5
M  V30 5 2 4 6
M  V30 6 2 5 7
M  V30 7 1 5 8
M  V30 8 1 8 9 CFG=1
M  V30 9 1 8 10
M  V30 10 1 9 11
M  V30 11 1 9 12
M  V30 12 2 10 13
M  V30 13 1 10 14
M  V30 14 2 11 15
M  V30 15 1 11 16
M  V30 16 2 12 17
M  V30 17 1 12 18
M  V30 18 1 14 19
M  V30 19 1 15 20
M  V30 20 2 16 21
M  V30 21 1 18 22
M  V30 22 1 19 23
M  V30 23 2 20 24
M  V30 24 1 22 25
M  V30 25 1 22 26
M  V30 26 2 23 27
M  V30 27 1 23 28
M  V30 28 1 24 29
M  V30 29 2 25 30
M  V30 30 2 26 31
M  V30 31 1 26 32
M  V30 32 1 27 33
M  V30 33 2 28 34
M  V30 34 1 29 35
M  V30 35 1 31 36
M  V30 36 2 32 37
M  V30 37 2 33 38
M  V30 38 2 35 39
M  V30 39 1 35 40
M  V30 40 2 36 41
M  V30 41 1 40 42
M  V30 42 1 40 43
M  V30 43 1 6 7
M  V30 44 1 21 24
M  V30 45 1 30 31
M  V30 46 1 34 38
M  V30 47 1 37 41
M  V30 END BOND
M  V30 BEGIN COLLECTION
M  V30 MDLV30/STERAC1 ATOMS=(1 8)
M  V30 END COLLECTION
M  V30 END CTAB
M  END
>  <Ligand InChI>
InChI=1S/C33H31FN6O3/c1-22(2)32(42)36-26-15-17-27(18-16-26)40(30(41)21-39-29-14-7-6-13-28(29)37-38-39)31(24-11-8-12-25(34)19-24)33(43)35-20-23-9-4-3-5-10-23/h3-19,22,31H,20-21H2,1-2H3,(H,35,43)(H,36,42)

>  <Ligand InChI Key>
PGBBZORGQALHAL-UHFFFAOYSA-N

>  <BindingDB MonomerID>
420337

>  <Target Name Assigned by Curator or DataSource>
3C-like proteinase (3CL-PRO)

>  <Target Source Organism According to Curator or DataSource>
Human SARS coronavirus

>  <IC50 (nM)>
1600

>  <PMID>


>  <Ligand HET ID in PDB>


>  <PDB ID(s) for Ligand-Target Complex>


>  <PubChem CID>


>  <PubChem SID>


>  <ChEMBL ID of Ligand>


>  <DrugBank ID of Ligand>


>  <ZINC ID of Ligand>


>  <PDB ID(s) of Target Chain>
1Q2W,1QZ8,1UJ1,1UK2,1UK3,1UK4,1UW7,1WOF,1Z1I,2A5A,2A5I,2A5K,2ACF,2AHM,2ALV,2AMD,2AMQ,2BX3,2BX4,2C3S,2D2D,2DUC,2FAV,2FE8,2FYG,2G9T,2GA6,2GDT,2GRI,2GT7,2GT8,2GTB,2GX4,2GZ7,2GZ8,2GZ9,2H2Z,2HOB,2HSX,2IDY,2JZF,2K7X,2K87,2KAF,2LIZ,2OP9,2OZK,2RNK,2V6N,2VJ1,2XYQ,2XYR,2XYV,2Z3C,2Z3D,2Z3E,2Z94,2Z9G,2Z9J,2Z9K,2Z9L,2ZU4,2ZU5,3D62,3E91,3E9S,3EA7,3EA8,3EBN,3IWM,3M3V,3MJ5,3R24,3SN8,3SNA,3SNB,3SNC,3SND,3SNE,3SZN,3TIT,3TIU,3TNS,3TNT,3V3M,3VB3,3VB4,3VB5,3VB6,3VB7,4MDS,4MM3,4OVZ,4OW0,5C8S,5C8T,5C8U,5F22,5N19,5N5O,5NFY,5TL6,5TL7,5Y3E,5Y3Q,6JYT,6LNQ,6LNY,6LO0,6NUR,6NUS,6W2A,6W79,6WCO,6XHL,6XHN,6XHO,6XMK,6XOA,7C2K

>  <Smiles>
CC(C)C(Nc(cc1)ccc1N(C(C(NCc1ccccc1)=O)c1cccc(F)c1)C(Cn1nnc2c1cccc2)=O)=O

$$$$
420352
Actelion Java MolfileCreator 2.0

  0  0  0  0  0  0              0 V3000
M  V30 BEGIN CTAB
M  V30 COUNTS 44 48 0 0 0
M  V30 BEGIN ATOM
M  V30 1 O 0.0 0.0 0.0 0
M  V30 2 C -0.0118 -1.4887 0.0 0
M  V30 3 N 1.2761 -2.2213 0.0 0
M  V30 4 C -1.3233 -2.2213 0.0 0 CFG=2
M  V30 5 C 2.564 -1.4651 0.0 0
M  V30 6 N -2.6349 -1.4651 0.0 0
M  V30 7 C -1.3351 -3.7101 0.0 0
M  V30 8 C 3.8519 -2.1977 0.0 0
M  V30 9 C -2.6467 0.0472 0.0 0
M  V30 10 C -3.9464 -2.1977 0.0 0
M  V30 11 C -2.6467 -4.4427 0.0 0
M  V30 12 C -0.0472 -4.4427 0.0 0
M  V30 13 C 3.8401 -3.6865 0.0 0
M  V30 14 C 5.1398 -1.4415 0.0 0
M  V30 15 C -1.3588 0.8034 0.0 0
M  V30 16 C -3.9582 0.8034 0.0 0
M  V30 17 O -3.9582 -3.6865 0.0 0
M  V30 18 C -5.258 -1.4415 0.0 0
M  V30 19 C -2.6585 -5.9315 0.0 0
M  V30 20 C -0.059 -5.9315 0.0 0
M  V30 21 C 5.128 -4.4309 0.0 0
M  V30 22 C 6.4277 -2.174 0.0 0
M  V30 23 C -1.3706 2.3158 0.0 0
M  V30 24 C -3.97 2.3158 0.0 0
M  V30 25 N -6.5695 -2.174 0.0 0
M  V30 26 C -1.3706 -6.664 0.0 0
M  V30 27 C 6.4159 -3.6746 0.0 0
M  V30 28 C -2.6821 3.072 0.0 0
M  V30 29 N -6.7349 -3.651 0.0 0
M  V30 30 C -7.9519 -1.5478 0.0 0
M  V30 31 O -1.3824 -8.1528 0.0 0
M  V30 32 N -2.6939 4.5845 0.0 0
M  V30 33 N -8.2119 -3.9464 0.0 0
M  V30 34 C -8.9681 -2.6467 0.0 0
M  V30 35 C -8.4246 -0.1063 0.0 0
M  V30 36 C -2.6939 -8.8854 0.0 0
M  V30 37 C -4.0055 5.3407 0.0 0
M  V30 38 C -10.4451 -2.3277 0.0 0
M  V30 39 C -9.9015 0.2126 0.0 0
M  V30 40 O -4.0173 6.8531 0.0 0
M  V30 41 C -5.317 4.6081 0.0 0
M  V30 42 C -10.9177 -0.8861 0.0 0
M  V30 43 C -6.6286 5.3643 0.0 0
M  V30 44 C -5.3289 3.1193 0.0 0
M  V30 END ATOM
M  V30 BEGIN BOND
M  V30 1 2 1 2
M  V30 2 1 2 3
M  V30 3 1 2 4
M  V30 4 1 3 5
M  V30 5 1 4 6 CFG=1
M  V30 6 1 4 7
M  V30 7 1 5 8
M  V30 8 1 6 9
M  V30 9 1 6 10
M  V30 10 2 7 11
M  V30 11 1 7 12
M  V30 12 2 8 13
M  V30 13 1 8 14
M  V30 14 2 9 15
M  V30 15 1 9 16
M  V30 16 2 10 17
M  V30 17 1 10 18
M  V30 18 1 11 19
M  V30 19 2 12 20
M  V30 20 1 13 21
M  V30 21 2 14 22
M  V30 22 1 15 23
M  V30 23 2 16 24
M  V30 24 1 18 25
M  V30 25 2 19 26
M  V30 26 2 21 27
M  V30 27 2 23 28
M  V30 28 1 25 29
M  V30 29 1 25 30
M  V30 30 1 26 31
M  V30 31 1 28 32
M  V30 32 2 29 33
M  V30 33 2 30 34
M  V30 34 1 30 35
M  V30 35 1 31 36
M  V30 36 1 32 37
M  V30 37 1 34 38
M  V30 38 2 35 39
M  V30 39 2 37 40
M  V30 40 1 37 41
M  V30 41 2 38 42
M  V30 42 1 41 43
M  V30 43 1 41 44
M  V30 44 1 20 26
M  V30 45 1 22 27
M  V30 46 1 24 28
M  V30 47 1 33 34
M  V30 48 1 39 42
M  V30 END BOND
M  V30 BEGIN COLLECTION
M  V30 MDLV30/STERAC1 ATOMS=(1 4)
M  V30 END COLLECTION
M  V30 END CTAB
M  END
>  <Ligand InChI>
InChI=1S/C34H34N6O4/c1-23(2)33(42)36-26-15-17-27(18-16-26)40(31(41)22-39-30-12-8-7-11-29(30)37-38-39)32(25-13-19-28(44-3)20-14-25)34(43)35-21-24-9-5-4-6-10-24/h4-20,23,32H,21-22H2,1-3H3,(H,35,43)(H,36,42)

>  <Ligand InChI Key>
WVRHRIIJMNGVEN-UHFFFAOYSA-N

>  <BindingDB MonomerID>
420352

>  <Target Name Assigned by Curator or DataSource>
3C-like proteinase (3CL-PRO)

>  <Target Source Organism According to Curator or DataSource>
Human SARS coronavirus

>  <IC50 (nM)>
1100

>  <PMID>


>  <Ligand HET ID in PDB>


>  <PDB ID(s) for Ligand-Target Complex>


>  <PubChem CID>


>  <PubChem SID>


>  <ChEMBL ID of Ligand>


>  <DrugBank ID of Ligand>


>  <ZINC ID of Ligand>


>  <PDB ID(s) of Target Chain>
1Q2W,1QZ8,1UJ1,1UK2,1UK3,1UK4,1UW7,1WOF,1Z1I,2A5A,2A5I,2A5K,2ACF,2AHM,2ALV,2AMD,2AMQ,2BX3,2BX4,2C3S,2D2D,2DUC,2FAV,2FE8,2FYG,2G9T,2GA6,2GDT,2GRI,2GT7,2GT8,2GTB,2GX4,2GZ7,2GZ8,2GZ9,2H2Z,2HOB,2HSX,2IDY,2JZF,2K7X,2K87,2KAF,2LIZ,2OP9,2OZK,2RNK,2V6N,2VJ1,2XYQ,2XYR,2XYV,2Z3C,2Z3D,2Z3E,2Z94,2Z9G,2Z9J,2Z9K,2Z9L,2ZU4,2ZU5,3D62,3E91,3E9S,3EA7,3EA8,3EBN,3IWM,3M3V,3MJ5,3R24,3SN8,3SNA,3SNB,3SNC,3SND,3SNE,3SZN,3TIT,3TIU,3TNS,3TNT,3V3M,3VB3,3VB4,3VB5,3VB6,3VB7,4MDS,4MM3,4OVZ,4OW0,5C8S,5C8T,5C8U,5F22,5N19,5N5O,5NFY,5TL6,5TL7,5Y3E,5Y3Q,6JYT,6LNQ,6LNY,6LO0,6NUR,6NUS,6W2A,6W79,6WCO,6XHL,6XHN,6XHO,6XMK,6XOA,7C2K

>  <Smiles>
CC(C)C(Nc(cc1)ccc1N(C(C(NCc1ccccc1)=O)c(cc1)ccc1OC)C(Cn1nnc2c1cccc2)=O)=O

$$$$
420363
Actelion Java MolfileCreator 2.0

  0  0  0  0  0  0              0 V3000
M  V30 BEGIN CTAB
M  V30 COUNTS 44 48 0 0 0
M  V30 BEGIN ATOM
M  V30 1 O 0.0 0.0 0.0 0
M  V30 2 C -0.0118 -1.4892 0.0 0
M  V30 3 N 1.2764 -2.2219 0.0 0
M  V30 4 C -1.3237 -2.2219 0.0 0 CFG=2
M  V30 5 C 2.5647 -1.4655 0.0 0
M  V30 6 N -2.6356 -1.4655 0.0 0
M  V30 7 C -1.3355 -3.7112 0.0 0
M  V30 8 C 3.853 -2.1983 0.0 0
M  V30 9 C -2.6474 0.0472 0.0 0
M  V30 10 C -3.9475 -2.1983 0.0 0
M  V30 11 C -0.0472 -4.4439 0.0 0
M  V30 12 C -2.6474 -4.4439 0.0 0
M  V30 13 C 3.8412 -3.6875 0.0 0
M  V30 14 C 5.1413 -1.4419 0.0 0
M  V30 15 C -1.3591 0.8037 0.0 0
M  V30 16 C -3.9594 0.8037 0.0 0
M  V30 17 O -3.9594 -3.6875 0.0 0
M  V30 18 C -5.2595 -1.4419 0.0 0
M  V30 19 C -0.059 -5.9332 0.0 0
M  V30 20 C -2.6593 -5.9332 0.0 0
M  V30 21 C 5.1295 -4.4321 0.0 0
M  V30 22 C 6.4296 -2.1747 0.0 0
M  V30 23 C -1.371 2.3165 0.0 0
M  V30 24 C -3.9712 2.3165 0.0 0
M  V30 25 N -6.5714 -2.1747 0.0 0
M  V30 26 O 1.2291 -6.6659 0.0 0
M  V30 27 C -1.371 -6.6659 0.0 0
M  V30 28 C 6.4177 -3.6757 0.0 0
M  V30 29 C -2.6829 3.0729 0.0 0
M  V30 30 N -6.7369 -3.6521 0.0 0
M  V30 31 C -7.9542 -1.5483 0.0 0
M  V30 32 C 1.2173 -8.1551 0.0 0
M  V30 33 N -2.6947 4.5858 0.0 0
M  V30 34 N -8.2142 -3.9475 0.0 0
M  V30 35 C -8.9707 -2.6474 0.0 0
M  V30 36 C -8.427 -0.1063 0.0 0
M  V30 37 C -4.0066 5.3422 0.0 0
M  V30 38 C -10.4481 -2.3283 0.0 0
M  V30 39 C -9.9044 0.2127 0.0 0
M  V30 40 O -4.0185 6.855 0.0 0
M  V30 41 C -5.3186 4.6094 0.0 0
M  V30 42 C -10.9208 -0.8864 0.0 0
M  V30 43 C -6.6305 5.3658 0.0 0
M  V30 44 C -5.3304 3.1202 0.0 0
M  V30 END ATOM
M  V30 BEGIN BOND
M  V30 1 2 1 2
M  V30 2 1 2 3
M  V30 3 1 2 4
M  V30 4 1 3 5
M  V30 5 1 4 6 CFG=1
M  V30 6 1 4 7
M  V30 7 1 5 8
M  V30 8 1 6 9
M  V30 9 1 6 10
M  V30 10 2 7 11
M  V30 11 1 7 12
M  V30 12 2 8 13
M  V30 13 1 8 14
M  V30 14 2 9 15
M  V30 15 1 9 16
M  V30 16 2 10 17
M  V30 17 1 10 18
M  V30 18 1 11 19
M  V30 19 2 12 20
M  V30 20 1 13 21
M  V30 21 2 14 22
M  V30 22 1 15 23
M  V30 23 2 16 24
M  V30 24 1 18 25
M  V30 25 1 19 26
M  V30 26 2 19 27
M  V30 27 2 21 28
M  V30 28 2 23 29
M  V30 29 1 25 30
M  V30 30 1 25 31
M  V30 31 1 26 32
M  V30 32 1 29 33
M  V30 33 2 30 34
M  V30 34 2 31 35
M  V30 35 1 31 36
M  V30 36 1 33 37
M  V30 37 1 35 38
M  V30 38 2 36 39
M  V30 39 2 37 40
M  V30 40 1 37 41
M  V30 41 2 38 42
M  V30 42 1 41 43
M  V30 43 1 41 44
M  V30 44 1 20 27
M  V30 45 1 22 28
M  V30 46 1 24 29
M  V30 47 1 34 35
M  V30 48 1 39 42
M  V30 END BOND
M  V30 BEGIN COLLECTION
M  V30 MDLV30/STERAC1 ATOMS=(1 4)
M  V30 END COLLECTION
M  V30 END CTAB
M  END
>  <Ligand InChI>
InChI=1S/C34H34N6O4/c1-23(2)33(42)36-26-16-18-27(19-17-26)40(31(41)22-39-30-15-8-7-14-29(30)37-38-39)32(25-12-9-13-28(20-25)44-3)34(43)35-21-24-10-5-4-6-11-24/h4-20,23,32H,21-22H2,1-3H3,(H,35,43)(H,36,42)

>  <Ligand InChI Key>
WSRFNUOBXQNQBG-UHFFFAOYSA-N

>  <BindingDB MonomerID>
420363

>  <Target Name Assigned by Curator or DataSource>
3C-like proteinase (3CL-PRO)

>  <Target Source Organism According to Curator or DataSource>
Human SARS coronavirus

>  <IC50 (nM)>
3500

>  <PMID>


>  <Ligand HET ID in PDB>


>  <PDB ID(s) for Ligand-Target Complex>


>  <PubChem CID>


>  <PubChem SID>


>  <ChEMBL ID of Ligand>


>  <DrugBank ID of Ligand>


>  <ZINC ID of Ligand>


>  <PDB ID(s) of Target Chain>
1Q2W,1QZ8,1UJ1,1UK2,1UK3,1UK4,1UW7,1WOF,1Z1I,2A5A,2A5I,2A5K,2ACF,2AHM,2ALV,2AMD,2AMQ,2BX3,2BX4,2C3S,2D2D,2DUC,2FAV,2FE8,2FYG,2G9T,2GA6,2GDT,2GRI,2GT7,2GT8,2GTB,2GX4,2GZ7,2GZ8,2GZ9,2H2Z,2HOB,2HSX,2IDY,2JZF,2K7X,2K87,2KAF,2LIZ,2OP9,2OZK,2RNK,2V6N,2VJ1,2XYQ,2XYR,2XYV,2Z3C,2Z3D,2Z3E,2Z94,2Z9G,2Z9J,2Z9K,2Z9L,2ZU4,2ZU5,3D62,3E91,3E9S,3EA7,3EA8,3EBN,3IWM,3M3V,3MJ5,3R24,3SN8,3SNA,3SNB,3SNC,3SND,3SNE,3SZN,3TIT,3TIU,3TNS,3TNT,3V3M,3VB3,3VB4,3VB5,3VB6,3VB7,4MDS,4MM3,4OVZ,4OW0,5C8S,5C8T,5C8U,5F22,5N19,5N5O,5NFY,5TL6,5TL7,5Y3E,5Y3Q,6JYT,6LNQ,6LNY,6LO0,6NUR,6NUS,6W2A,6W79,6WCO,6XHL,6XHN,6XHO,6XMK,6XOA,7C2K

>  <Smiles>
CC(C)C(Nc(cc1)ccc1N(C(C(NCc1ccccc1)=O)c1cc(OC)ccc1)C(Cn1nnc2c1cccc2)=O)=O

$$$$
420957
Actelion Java MolfileCreator 2.0

  0  0  0  0  0  0              0 V3000
M  V30 BEGIN CTAB
M  V30 COUNTS 44 48 0 0 0
M  V30 BEGIN ATOM
M  V30 1 Cl 0.0 0.0 0.0 0
M  V30 2 C -0.0117 1.5095 0.0 0
M  V30 3 C 1.2736 2.2643 0.0 0
M  V30 4 C -1.3208 2.2643 0.0 0
M  V30 5 F 2.5591 1.5331 0.0 0
M  V30 6 C 1.2619 3.7739 0.0 0
M  V30 7 C -1.3326 3.7739 0.0 0
M  V30 8 C -0.0471 4.5287 0.0 0
M  V30 9 C -0.0589 6.0382 0.0 0 CFG=1
M  V30 10 N -1.368 6.793 0.0 0
M  V30 11 C 1.2265 6.793 0.0 0
M  V30 12 C -1.3798 8.3026 0.0 0
M  V30 13 C -2.6771 6.0618 0.0 0
M  V30 14 O 1.2147 8.3026 0.0 0
M  V30 15 N 2.512 6.0618 0.0 0
M  V30 16 C -0.0943 9.0574 0.0 0
M  V30 17 C -2.6889 9.0574 0.0 0
M  V30 18 O -2.6889 4.5758 0.0 0
M  V30 19 C -3.9862 6.8166 0.0 0
M  V30 20 C 3.7975 6.8166 0.0 0
M  V30 21 C -0.1061 10.5669 0.0 0
M  V30 22 C -2.7007 10.5669 0.0 0
M  V30 23 N -5.2952 6.0854 0.0 0
M  V30 24 C 5.083 6.0854 0.0 0
M  V30 25 C -1.4152 11.3217 0.0 0
M  V30 26 N -5.4603 4.6112 0.0 0
M  V30 27 C -6.6751 6.7105 0.0 0
M  V30 28 C 5.0712 4.5994 0.0 0
M  V30 29 C 6.3684 6.8402 0.0 0
M  V30 30 N -1.427 12.8313 0.0 0
M  V30 31 N -6.9345 4.3164 0.0 0
M  V30 32 C -7.6893 5.6137 0.0 0
M  V30 33 C -7.1468 8.1493 0.0 0
M  V30 34 C 6.3567 3.8564 0.0 0
M  V30 35 C 7.6539 6.109 0.0 0
M  V30 36 C -2.736 13.5861 0.0 0
M  V30 37 C -9.1635 5.9321 0.0 0
M  V30 38 C -8.621 8.4677 0.0 0
M  V30 39 C 7.6421 4.6112 0.0 0
M  V30 40 O -2.7478 15.0956 0.0 0
M  V30 41 C -4.0451 12.8549 0.0 0
M  V30 42 C -9.6352 7.3709 0.0 0
M  V30 43 C -5.3542 13.6097 0.0 0
M  V30 44 C -4.0569 11.3689 0.0 0
M  V30 END ATOM
M  V30 BEGIN BOND
M  V30 1 1 1 2
M  V30 2 2 2 3
M  V30 3 1 2 4
M  V30 4 1 3 5
M  V30 5 1 3 6
M  V30 6 2 4 7
M  V30 7 2 6 8
M  V30 8 1 8 9
M  V30 9 1 9 10 CFG=1
M  V30 10 1 9 11
M  V30 11 1 10 12
M  V30 12 1 10 13
M  V30 13 2 11 14
M  V30 14 1 11 15
M  V30 15 2 12 16
M  V30 16 1 12 17
M  V30 17 2 13 18
M  V30 18 1 13 19
M  V30 19 1 15 20
M  V30 20 1 16 21
M  V30 21 2 17 22
M  V30 22 1 19 23
M  V30 23 1 20 24
M  V30 24 2 21 25
M  V30 25 1 23 26
M  V30 26 1 23 27
M  V30 27 2 24 28
M  V30 28 1 24 29
M  V30 29 1 25 30
M  V30 30 2 26 31
M  V30 31 2 27 32
M  V30 32 1 27 33
M  V30 33 1 28 34
M  V30 34 2 29 35
M  V30 35 1 30 36
M  V30 36 1 32 37
M  V30 37 2 33 38
M  V30 38 2 34 39
M  V30 39 2 36 40
M  V30 40 1 36 41
M  V30 41 2 37 42
M  V30 42 1 41 43
M  V30 43 1 41 44
M  V30 44 1 7 8
M  V30 45 1 22 25
M  V30 46 1 31 32
M  V30 47 1 35 39
M  V30 48 1 38 42
M  V30 END BOND
M  V30 BEGIN COLLECTION
M  V30 MDLV30/STERAC1 ATOMS=(1 9)
M  V30 END COLLECTION
M  V30 END CTAB
M  END
>  <Ligand InChI>
InChI=1S/C33H30ClFN6O3/c1-21(2)32(43)37-24-13-15-25(16-14-24)41(30(42)20-40-29-11-7-6-10-28(29)38-39-40)31(23-12-17-26(34)27(35)18-23)33(44)36-19-22-8-4-3-5-9-22/h3-18,21,31H,19-20H2,1-2H3,(H,36,44)(H,37,43)

>  <Ligand InChI Key>
ISHXMYLDUPUTFN-UHFFFAOYSA-N

>  <BindingDB MonomerID>
420957

>  <Target Name Assigned by Curator or DataSource>
3C-like proteinase (3CL-PRO)

>  <Target Source Organism According to Curator or DataSource>
Human SARS coronavirus

>  <IC50 (nM)>
800

>  <PMID>


>  <Ligand HET ID in PDB>


>  <PDB ID(s) for Ligand-Target Complex>


>  <PubChem CID>


>  <PubChem SID>


>  <ChEMBL ID of Ligand>


>  <DrugBank ID of Ligand>


>  <ZINC ID of Ligand>


>  <PDB ID(s) of Target Chain>
1Q2W,1QZ8,1UJ1,1UK2,1UK3,1UK4,1UW7,1WOF,1Z1I,2A5A,2A5I,2A5K,2ACF,2AHM,2ALV,2AMD,2AMQ,2BX3,2BX4,2C3S,2D2D,2DUC,2FAV,2FE8,2FYG,2G9T,2GA6,2GDT,2GRI,2GT7,2GT8,2GTB,2GX4,2GZ7,2GZ8,2GZ9,2H2Z,2HOB,2HSX,2IDY,2JZF,2K7X,2K87,2KAF,2LIZ,2OP9,2OZK,2RNK,2V6N,2VJ1,2XYQ,2XYR,2XYV,2Z3C,2Z3D,2Z3E,2Z94,2Z9G,2Z9J,2Z9K,2Z9L,2ZU4,2ZU5,3D62,3E91,3E9S,3EA7,3EA8,3EBN,3IWM,3M3V,3MJ5,3R24,3SN8,3SNA,3SNB,3SNC,3SND,3SNE,3SZN,3TIT,3TIU,3TNS,3TNT,3V3M,3VB3,3VB4,3VB5,3VB6,3VB7,4MDS,4MM3,4OVZ,4OW0,5C8S,5C8T,5C8U,5F22,5N19,5N5O,5NFY,5TL6,5TL7,5Y3E,5Y3Q,6JYT,6LNQ,6LNY,6LO0,6NUR,6NUS,6W2A,6W79,6WCO,6XHL,6XHN,6XHO,6XMK,6XOA,7C2K

>  <Smiles>
CC(C)C(Nc(cc1)ccc1N(C(C(NCc1ccccc1)=O)c(cc1)cc(F)c1Cl)C(Cn1nnc2c1cccc2)=O)=O

$$$$
420975
Actelion Java MolfileCreator 2.0

  0  0  0  0  0  0              0 V3000
M  V30 BEGIN CTAB
M  V30 COUNTS 39 43 0 0 0
M  V30 BEGIN ATOM
M  V30 1 S 0.0 0.0 0.0 0
M  V30 2 C 0.4466 1.4339 0.0 0
M  V30 3 C -1.5044 0.0117 0.0 0
M  V30 4 C -0.7757 2.3272 0.0 0
M  V30 5 C -1.9746 1.4457 0.0 0
M  V30 6 C -0.7875 3.8317 0.0 0 CFG=1
M  V30 7 N -2.0921 4.5839 0.0 0
M  V30 8 C 0.4936 4.5839 0.0 0
M  V30 9 C -2.1039 6.0884 0.0 0
M  V30 10 C -3.3968 3.8435 0.0 0
M  V30 11 O 0.4819 6.0884 0.0 0
M  V30 12 N 1.7748 3.8435 0.0 0
M  V30 13 C -0.8227 6.8407 0.0 0
M  V30 14 C -3.4086 6.8407 0.0 0
M  V30 15 O -3.4086 2.3625 0.0 0
M  V30 16 C -4.7015 4.5957 0.0 0
M  V30 17 C 3.0559 4.5957 0.0 0
M  V30 18 C -0.8345 8.3452 0.0 0
M  V30 19 C -3.4203 8.3452 0.0 0
M  V30 20 N -6.0062 3.8552 0.0 0
M  V30 21 C 4.3371 3.8552 0.0 0
M  V30 22 C -2.1391 9.0974 0.0 0
M  V30 23 N -6.1707 2.386 0.0 0
M  V30 24 C -7.3814 4.4782 0.0 0
M  V30 25 C 4.3254 2.3742 0.0 0
M  V30 26 C 5.6183 4.6075 0.0 0
M  V30 27 C 5.6183 3.1265 0.0 0
M  V30 28 N -2.1509 10.6019 0.0 0
M  V30 29 N -7.6399 2.0921 0.0 0
M  V30 30 C -8.3922 3.3851 0.0 0
M  V30 31 C -7.8515 5.9121 0.0 0
M  V30 32 C -3.4556 11.3541 0.0 0
M  V30 33 C -9.8614 3.7024 0.0 0
M  V30 34 C -9.3207 6.2295 0.0 0
M  V30 35 O -3.4673 12.8586 0.0 0
M  V30 36 C -4.7603 10.6137 0.0 0
M  V30 37 C -10.3316 5.1364 0.0 0
M  V30 38 C -6.253 10.7782 0.0 0
M  V30 39 C -5.5125 9.3325 0.0 0
M  V30 END ATOM
M  V30 BEGIN BOND
M  V30 1 1 1 2
M  V30 2 1 1 3
M  V30 3 2 2 4
M  V30 4 2 3 5
M  V30 5 1 4 6
M  V30 6 1 6 7 CFG=1
M  V30 7 1 6 8
M  V30 8 1 7 9
M  V30 9 1 7 10
M  V30 10 2 8 11
M  V30 11 1 8 12
M  V30 12 2 9 13
M  V30 13 1 9 14
M  V30 14 2 10 15
M  V30 15 1 10 16
M  V30 16 1 12 17
M  V30 17 1 13 18
M  V30 18 2 14 19
M  V30 19 1 16 20
M  V30 20 1 17 21
M  V30 21 2 18 22
M  V30 22 1 20 23
M  V30 23 1 20 24
M  V30 24 1 21 25
M  V30 25 1 21 26
M  V30 26 1 21 27
M  V30 27 1 22 28
M  V30 28 2 23 29
M  V30 29 2 24 30
M  V30 30 1 24 31
M  V30 31 1 28 32
M  V30 32 1 30 33
M  V30 33 2 31 34
M  V30 34 2 32 35
M  V30 35 1 32 36
M  V30 36 2 33 37
M  V30 37 1 36 38
M  V30 38 1 36 39
M  V30 39 1 4 5
M  V30 40 1 19 22
M  V30 41 1 29 30
M  V30 42 1 34 37
M  V30 43 1 38 39
M  V30 END BOND
M  V30 BEGIN COLLECTION
M  V30 MDLV30/STERAC1 ATOMS=(1 6)
M  V30 END COLLECTION
M  V30 END CTAB
M  END
>  <Ligand InChI>
InChI=1S/C29H32N6O3S/c1-29(2,3)18-30-28(38)26(20-14-15-39-17-20)35(22-12-10-21(11-13-22)31-27(37)19-8-9-19)25(36)16-34-24-7-5-4-6-23(24)32-33-34/h4-7,10-15,17,19,26H,8-9,16,18H2,1-3H3,(H,30,38)(H,31,37)

>  <Ligand InChI Key>
VBVYKHHWNTWNAF-UHFFFAOYSA-N

>  <BindingDB MonomerID>
420975

>  <Target Name Assigned by Curator or DataSource>
3C-like proteinase (3CL-PRO)

>  <Target Source Organism According to Curator or DataSource>
Human SARS coronavirus

>  <IC50 (nM)>
4200

>  <PMID>


>  <Ligand HET ID in PDB>


>  <PDB ID(s) for Ligand-Target Complex>


>  <PubChem CID>


>  <PubChem SID>


>  <ChEMBL ID of Ligand>


>  <DrugBank ID of Ligand>


>  <ZINC ID of Ligand>


>  <PDB ID(s) of Target Chain>
1Q2W,1QZ8,1UJ1,1UK2,1UK3,1UK4,1UW7,1WOF,1Z1I,2A5A,2A5I,2A5K,2ACF,2AHM,2ALV,2AMD,2AMQ,2BX3,2BX4,2C3S,2D2D,2DUC,2FAV,2FE8,2FYG,2G9T,2GA6,2GDT,2GRI,2GT7,2GT8,2GTB,2GX4,2GZ7,2GZ8,2GZ9,2H2Z,2HOB,2HSX,2IDY,2JZF,2K7X,2K87,2KAF,2LIZ,2OP9,2OZK,2RNK,2V6N,2VJ1,2XYQ,2XYR,2XYV,2Z3C,2Z3D,2Z3E,2Z94,2Z9G,2Z9J,2Z9K,2Z9L,2ZU4,2ZU5,3D62,3E91,3E9S,3EA7,3EA8,3EBN,3IWM,3M3V,3MJ5,3R24,3SN8,3SNA,3SNB,3SNC,3SND,3SNE,3SZN,3TIT,3TIU,3TNS,3TNT,3V3M,3VB3,3VB4,3VB5,3VB6,3VB7,4MDS,4MM3,4OVZ,4OW0,5C8S,5C8T,5C8U,5F22,5N19,5N5O,5NFY,5TL6,5TL7,5Y3E,5Y3Q,6JYT,6LNQ,6LNY,6LO0,6NUR,6NUS,6W2A,6W79,6WCO,6XHL,6XHN,6XHO,6XMK,6XOA,7C2K

>  <Smiles>
CC(C)(C)CNC(C(c1cscc1)N(C(Cn1nnc2c1cccc2)=O)c(cc1)ccc1NC(C1CC1)=O)=O

$$$$
420978
Actelion Java MolfileCreator 2.0

  0  0  0  0  0  0              0 V3000
M  V30 BEGIN CTAB
M  V30 COUNTS 39 44 0 0 0
M  V30 BEGIN ATOM
M  V30 1 S 0.0 0.0 0.0 0
M  V30 2 C 0.4464 1.4334 0.0 0
M  V30 3 C -1.5039 0.0117 0.0 0
M  V30 4 C -0.7754 2.3264 0.0 0
M  V30 5 C -1.9739 1.4451 0.0 0
M  V30 6 C -0.7872 3.8303 0.0 0 CFG=1
M  V30 7 N -2.0914 4.5823 0.0 0
M  V30 8 C 0.4934 4.5823 0.0 0
M  V30 9 C -2.1031 6.0862 0.0 0
M  V30 10 C -3.3956 3.842 0.0 0
M  V30 11 O 0.4817 6.0862 0.0 0
M  V30 12 N 1.7741 3.842 0.0 0
M  V30 13 C -0.8224 6.8382 0.0 0
M  V30 14 C -3.4073 6.8382 0.0 0
M  V30 15 O -3.4073 2.3616 0.0 0
M  V30 16 C -4.6998 4.594 0.0 0
M  V30 17 C 3.0548 4.594 0.0 0
M  V30 18 C -0.8342 8.3421 0.0 0
M  V30 19 C -3.4191 8.3421 0.0 0
M  V30 20 N -6.004 3.8538 0.0 0
M  V30 21 C 4.406 3.9948 0.0 0
M  V30 22 C 3.1958 6.0862 0.0 0
M  V30 23 C -2.1384 9.0941 0.0 0
M  V30 24 N -6.1685 2.3851 0.0 0
M  V30 25 C -7.3787 4.4765 0.0 0
M  V30 26 C 5.393 5.111 0.0 0
M  V30 27 C 4.641 6.4034 0.0 0
M  V30 28 N -2.1501 10.598 0.0 0
M  V30 29 N -7.6371 2.0914 0.0 0
M  V30 30 C -8.3891 3.3838 0.0 0
M  V30 31 C -7.8486 5.91 0.0 0
M  V30 32 C -3.4543 11.35 0.0 0
M  V30 33 C -9.8578 3.7011 0.0 0
M  V30 34 C -9.3173 6.2272 0.0 0
M  V30 35 O -3.4661 12.8539 0.0 0
M  V30 36 C -4.7585 10.6098 0.0 0
M  V30 37 C -10.3278 5.1345 0.0 0
M  V30 38 C -6.2507 10.7743 0.0 0
M  V30 39 C -5.5105 9.3291 0.0 0
M  V30 END ATOM
M  V30 BEGIN BOND
M  V30 1 1 1 2
M  V30 2 1 1 3
M  V30 3 2 2 4
M  V30 4 2 3 5
M  V30 5 1 4 6
M  V30 6 1 6 7 CFG=1
M  V30 7 1 6 8
M  V30 8 1 7 9
M  V30 9 1 7 10
M  V30 10 2 8 11
M  V30 11 1 8 12
M  V30 12 2 9 13
M  V30 13 1 9 14
M  V30 14 2 10 15
M  V30 15 1 10 16
M  V30 16 1 12 17
M  V30 17 1 13 18
M  V30 18 2 14 19
M  V30 19 1 16 20
M  V30 20 1 17 21
M  V30 21 1 17 22
M  V30 22 2 18 23
M  V30 23 1 20 24
M  V30 24 1 20 25
M  V30 25 1 21 26
M  V30 26 1 22 27
M  V30 27 1 23 28
M  V30 28 2 24 29
M  V30 29 2 25 30
M  V30 30 1 25 31
M  V30 31 1 28 32
M  V30 32 1 30 33
M  V30 33 2 31 34
M  V30 34 2 32 35
M  V30 35 1 32 36
M  V30 36 2 33 37
M  V30 37 1 36 38
M  V30 38 1 36 39
M  V30 39 1 4 5
M  V30 40 1 19 23
M  V30 41 1 26 27
M  V30 42 1 29 30
M  V30 43 1 34 37
M  V30 44 1 38 39
M  V30 END BOND
M  V30 BEGIN COLLECTION
M  V30 MDLV30/STERAC1 ATOMS=(1 6)
M  V30 END COLLECTION
M  V30 END CTAB
M  END
>  <Ligand InChI>
InChI=1S/C29H30N6O3S/c36-26(17-34-25-8-4-3-7-24(25)32-33-34)35(23-13-11-22(12-14-23)30-28(37)19-9-10-19)27(20-15-16-39-18-20)29(38)31-21-5-1-2-6-21/h3-4,7-8,11-16,18-19,21,27H,1-2,5-6,9-10,17H2,(H,30,37)(H,31,38)

>  <Ligand InChI Key>
ZZQICCIBXSGDRY-UHFFFAOYSA-N

>  <BindingDB MonomerID>
420978

>  <Target Name Assigned by Curator or DataSource>
3C-like proteinase (3CL-PRO)

>  <Target Source Organism According to Curator or DataSource>
Human SARS coronavirus

>  <IC50 (nM)>
4200

>  <PMID>


>  <Ligand HET ID in PDB>


>  <PDB ID(s) for Ligand-Target Complex>


>  <PubChem CID>


>  <PubChem SID>


>  <ChEMBL ID of Ligand>


>  <DrugBank ID of Ligand>


>  <ZINC ID of Ligand>


>  <PDB ID(s) of Target Chain>
1Q2W,1QZ8,1UJ1,1UK2,1UK3,1UK4,1UW7,1WOF,1Z1I,2A5A,2A5I,2A5K,2ACF,2AHM,2ALV,2AMD,2AMQ,2BX3,2BX4,2C3S,2D2D,2DUC,2FAV,2FE8,2FYG,2G9T,2GA6,2GDT,2GRI,2GT7,2GT8,2GTB,2GX4,2GZ7,2GZ8,2GZ9,2H2Z,2HOB,2HSX,2IDY,2JZF,2K7X,2K87,2KAF,2LIZ,2OP9,2OZK,2RNK,2V6N,2VJ1,2XYQ,2XYR,2XYV,2Z3C,2Z3D,2Z3E,2Z94,2Z9G,2Z9J,2Z9K,2Z9L,2ZU4,2ZU5,3D62,3E91,3E9S,3EA7,3EA8,3EBN,3IWM,3M3V,3MJ5,3R24,3SN8,3SNA,3SNB,3SNC,3SND,3SNE,3SZN,3TIT,3TIU,3TNS,3TNT,3V3M,3VB3,3VB4,3VB5,3VB6,3VB7,4MDS,4MM3,4OVZ,4OW0,5C8S,5C8T,5C8U,5F22,5N19,5N5O,5NFY,5TL6,5TL7,5Y3E,5Y3Q,6JYT,6LNQ,6LNY,6LO0,6NUR,6NUS,6W2A,6W79,6WCO,6XHL,6XHN,6XHO,6XMK,6XOA,7C2K

>  <Smiles>
O=C(Cn1nnc2c1cccc2)N(C(C(NC1CCCC1)=O)c1cscc1)c(cc1)ccc1NC(C1CC1)=O

$$$$
420980
Actelion Java MolfileCreator 2.0

  0  0  0  0  0  0              0 V3000
M  V30 BEGIN CTAB
M  V30 COUNTS 41 46 0 0 0
M  V30 BEGIN ATOM
M  V30 1 S 0.0 0.0 0.0 0
M  V30 2 C 0.4469 1.4349 0.0 0
M  V30 3 C -1.5055 0.0117 0.0 0
M  V30 4 C -0.7762 2.3288 0.0 0
M  V30 5 C -1.976 1.4467 0.0 0
M  V30 6 C -0.788 3.8343 0.0 0 CFG=1
M  V30 7 N -2.0936 4.5871 0.0 0
M  V30 8 C 0.494 4.5871 0.0 0
M  V30 9 C -2.1053 6.0926 0.0 0
M  V30 10 C -3.3992 3.8461 0.0 0
M  V30 11 O 0.4822 6.0926 0.0 0
M  V30 12 N 1.776 3.8461 0.0 0
M  V30 13 C -0.8233 6.8454 0.0 0
M  V30 14 C -3.4109 6.8454 0.0 0
M  V30 15 O -3.4109 2.3641 0.0 0
M  V30 16 C -4.7047 4.5989 0.0 0
M  V30 17 C 3.0581 4.5989 0.0 0
M  V30 18 C -0.835 8.3509 0.0 0
M  V30 19 C -3.4227 8.3509 0.0 0
M  V30 20 N -6.0103 3.8579 0.0 0
M  V30 21 C 4.3401 3.8579 0.0 0
M  V30 22 C -2.1406 9.1037 0.0 0
M  V30 23 N -6.175 2.3876 0.0 0
M  V30 24 C -7.3865 4.4813 0.0 0
M  V30 25 C 4.3283 2.3759 0.0 0
M  V30 26 C 5.6222 4.6106 0.0 0
M  V30 27 N -2.1524 10.6092 0.0 0
M  V30 28 N -7.6452 2.0936 0.0 0
M  V30 29 C -8.398 3.3874 0.0 0
M  V30 30 C -7.8569 5.9162 0.0 0
M  V30 31 C 5.6104 1.6349 0.0 0
M  V30 32 C 6.9042 3.8696 0.0 0
M  V30 33 C -3.458 11.362 0.0 0
M  V30 34 C -9.8682 3.705 0.0 0
M  V30 35 C -9.3272 6.2338 0.0 0
M  V30 36 C 6.8925 2.3876 0.0 0
M  V30 37 O -3.4697 12.8675 0.0 0
M  V30 38 C -4.7635 10.621 0.0 0
M  V30 39 C -10.3387 5.1399 0.0 0
M  V30 40 C -6.2573 10.7857 0.0 0
M  V30 41 C -5.5163 9.3389 0.0 0
M  V30 END ATOM
M  V30 BEGIN BOND
M  V30 1 1 1 2
M  V30 2 1 1 3
M  V30 3 2 2 4
M  V30 4 2 3 5
M  V30 5 1 4 6
M  V30 6 1 6 7 CFG=1
M  V30 7 1 6 8
M  V30 8 1 7 9
M  V30 9 1 7 10
M  V30 10 2 8 11
M  V30 11 1 8 12
M  V30 12 2 9 13
M  V30 13 1 9 14
M  V30 14 2 10 15
M  V30 15 1 10 16
M  V30 16 1 12 17
M  V30 17 1 13 18
M  V30 18 2 14 19
M  V30 19 1 16 20
M  V30 20 1 17 21
M  V30 21 2 18 22
M  V30 22 1 20 23
M  V30 23 1 20 24
M  V30 24 2 21 25
M  V30 25 1 21 26
M  V30 26 1 22 27
M  V30 27 2 23 28
M  V30 28 2 24 29
M  V30 29 1 24 30
M  V30 30 1 25 31
M  V30 31 2 26 32
M  V30 32 1 27 33
M  V30 33 1 29 34
M  V30 34 2 30 35
M  V30 35 2 31 36
M  V30 36 2 33 37
M  V30 37 1 33 38
M  V30 38 2 34 39
M  V30 39 1 38 40
M  V30 40 1 38 41
M  V30 41 1 4 5
M  V30 42 1 19 22
M  V30 43 1 28 29
M  V30 44 1 32 36
M  V30 45 1 35 39
M  V30 46 1 40 41
M  V30 END BOND
M  V30 BEGIN COLLECTION
M  V30 MDLV30/STERAC1 ATOMS=(1 6)
M  V30 END COLLECTION
M  V30 END CTAB
M  END
>  <Ligand InChI>
InChI=1S/C31H28N6O3S/c38-28(19-36-27-9-5-4-8-26(27)34-35-36)37(25-14-12-24(13-15-25)33-30(39)22-10-11-22)29(23-16-17-41-20-23)31(40)32-18-21-6-2-1-3-7-21/h1-9,12-17,20,22,29H,10-11,18-19H2,(H,32,40)(H,33,39)

>  <Ligand InChI Key>
MOOGDCUJJKYCSA-UHFFFAOYSA-N

>  <BindingDB MonomerID>
420980

>  <Target Name Assigned by Curator or DataSource>
3C-like proteinase (3CL-PRO)

>  <Target Source Organism According to Curator or DataSource>
Human SARS coronavirus

>  <IC50 (nM)>
2000

>  <PMID>


>  <Ligand HET ID in PDB>


>  <PDB ID(s) for Ligand-Target Complex>


>  <PubChem CID>


>  <PubChem SID>


>  <ChEMBL ID of Ligand>


>  <DrugBank ID of Ligand>


>  <ZINC ID of Ligand>


>  <PDB ID(s) of Target Chain>
1Q2W,1QZ8,1UJ1,1UK2,1UK3,1UK4,1UW7,1WOF,1Z1I,2A5A,2A5I,2A5K,2ACF,2AHM,2ALV,2AMD,2AMQ,2BX3,2BX4,2C3S,2D2D,2DUC,2FAV,2FE8,2FYG,2G9T,2GA6,2GDT,2GRI,2GT7,2GT8,2GTB,2GX4,2GZ7,2GZ8,2GZ9,2H2Z,2HOB,2HSX,2IDY,2JZF,2K7X,2K87,2KAF,2LIZ,2OP9,2OZK,2RNK,2V6N,2VJ1,2XYQ,2XYR,2XYV,2Z3C,2Z3D,2Z3E,2Z94,2Z9G,2Z9J,2Z9K,2Z9L,2ZU4,2ZU5,3D62,3E91,3E9S,3EA7,3EA8,3EBN,3IWM,3M3V,3MJ5,3R24,3SN8,3SNA,3SNB,3SNC,3SND,3SNE,3SZN,3TIT,3TIU,3TNS,3TNT,3V3M,3VB3,3VB4,3VB5,3VB6,3VB7,4MDS,4MM3,4OVZ,4OW0,5C8S,5C8T,5C8U,5F22,5N19,5N5O,5NFY,5TL6,5TL7,5Y3E,5Y3Q,6JYT,6LNQ,6LNY,6LO0,6NUR,6NUS,6W2A,6W79,6WCO,6XHL,6XHN,6XHO,6XMK,6XOA,7C2K

>  <Smiles>
O=C(Cn1nnc2c1cccc2)N(C(C(NCc1ccccc1)=O)c1cscc1)c(cc1)ccc1NC(C1CC1)=O

$$$$
420993
Actelion Java MolfileCreator 2.0

  0  0  0  0  0  0              0 V3000
M  V30 BEGIN CTAB
M  V30 COUNTS 33 36 0 0 0
M  V30 BEGIN ATOM
M  V30 1 O 0.0 0.0 0.0 0
M  V30 2 C -0.0118 1.5105 0.0 0
M  V30 3 N 1.2745 2.2775 0.0 0
M  V30 4 C -1.3217 2.2775 0.0 0
M  V30 5 C 1.2627 3.7881 0.0 0
M  V30 6 C 2.5608 1.5341 0.0 0 CFG=2
M  V30 7 N -2.549 1.4043 0.0 0
M  V30 8 C -1.7937 3.7173 0.0 0
M  V30 9 C 2.549 4.5433 0.0 0
M  V30 10 C -0.0472 4.5433 0.0 0
M  V30 11 C 2.549 0.0472 0.0 0
M  V30 12 C 3.8471 2.3011 0.0 0
M  V30 13 C -3.7763 2.3011 0.0 0
M  V30 14 N -3.3042 3.7291 0.0 0
M  V30 15 C 2.5372 6.0538 0.0 0
M  V30 16 C -0.059 6.0538 0.0 0
M  V30 17 C 3.8353 -0.6844 0.0 0
M  V30 18 C 1.2391 -0.6844 0.0 0
M  V30 19 O 3.8353 3.8117 0.0 0
M  V30 20 N 5.1334 1.5577 0.0 0
M  V30 21 C 1.2272 6.8091 0.0 0
M  V30 22 N 3.8235 -2.1713 0.0 0
M  V30 23 C 1.2272 -2.1713 0.0 0
M  V30 24 C 6.4197 2.3247 0.0 0
M  V30 25 C 1.2154 8.3196 0.0 0
M  V30 26 C 2.5136 -2.9148 0.0 0
M  V30 27 C 7.7768 1.7229 0.0 0
M  V30 28 C 6.5613 3.8235 0.0 0
M  V30 29 C -0.0944 9.0749 0.0 0
M  V30 30 C 2.5018 9.0749 0.0 0
M  V30 31 C 2.5018 7.588 0.0 0
M  V30 32 C 8.7681 2.844 0.0 0
M  V30 33 C 8.0128 4.1421 0.0 0
M  V30 END ATOM
M  V30 BEGIN BOND
M  V30 1 2 1 2
M  V30 2 1 2 3
M  V30 3 1 2 4
M  V30 4 1 3 5
M  V30 5 1 6 3 CFG=1
M  V30 6 2 4 7
M  V30 7 1 4 8
M  V30 8 2 5 9
M  V30 9 1 5 10
M  V30 10 1 6 11
M  V30 11 1 6 12
M  V30 12 1 7 13
M  V30 13 2 8 14
M  V30 14 1 9 15
M  V30 15 2 10 16
M  V30 16 2 11 17
M  V30 17 1 11 18
M  V30 18 2 12 19
M  V30 19 1 12 20
M  V30 20 2 15 21
M  V30 21 1 17 22
M  V30 22 2 18 23
M  V30 23 1 20 24
M  V30 24 1 21 25
M  V30 25 2 22 26
M  V30 26 1 24 27
M  V30 27 1 24 28
M  V30 28 1 25 29
M  V30 29 1 25 30
M  V30 30 1 25 31
M  V30 31 1 27 32
M  V30 32 1 28 33
M  V30 33 1 13 14
M  V30 34 1 16 21
M  V30 35 1 23 26
M  V30 36 1 32 33
M  V30 END BOND
M  V30 BEGIN COLLECTION
M  V30 MDLV30/STERAC1 ATOMS=(1 6)
M  V30 END COLLECTION
M  V30 END CTAB
M  END
>  <Ligand InChI>
InChI=1/C26H31N5O2/c1-26(2,3)19-10-12-21(13-11-19)31(25(33)22-16-28-17-29-22)23(18-7-6-14-27-15-18)24(32)30-20-8-4-5-9-20/h6-7,10-17,20,23H,4-5,8-9H2,1-3H3,(H,28,29)(H,30,32)

>  <Ligand InChI Key>
GYSUWMLOWVCSQJ-UHFFFAOYNA-N

>  <BindingDB MonomerID>
420993

>  <Target Name Assigned by Curator or DataSource>
3C-like proteinase (3CL-PRO)

>  <Target Source Organism According to Curator or DataSource>
Human SARS coronavirus

>  <IC50 (nM)>
1700

>  <PMID>


>  <Ligand HET ID in PDB>
X47

>  <PDB ID(s) for Ligand-Target Complex>


>  <PubChem CID>


>  <PubChem SID>


>  <ChEMBL ID of Ligand>


>  <DrugBank ID of Ligand>


>  <ZINC ID of Ligand>


>  <PDB ID(s) of Target Chain>
1Q2W,1QZ8,1UJ1,1UK2,1UK3,1UK4,1UW7,1WOF,1Z1I,2A5A,2A5I,2A5K,2ACF,2AHM,2ALV,2AMD,2AMQ,2BX3,2BX4,2C3S,2D2D,2DUC,2FAV,2FE8,2FYG,2G9T,2GA6,2GDT,2GRI,2GT7,2GT8,2GTB,2GX4,2GZ7,2GZ8,2GZ9,2H2Z,2HOB,2HSX,2IDY,2JZF,2K7X,2K87,2KAF,2LIZ,2OP9,2OZK,2RNK,2V6N,2VJ1,2XYQ,2XYR,2XYV,2Z3C,2Z3D,2Z3E,2Z94,2Z9G,2Z9J,2Z9K,2Z9L,2ZU4,2ZU5,3D62,3E91,3E9S,3EA7,3EA8,3EBN,3IWM,3M3V,3MJ5,3R24,3SN8,3SNA,3SNB,3SNC,3SND,3SNE,3SZN,3TIT,3TIU,3TNS,3TNT,3V3M,3VB3,3VB4,3VB5,3VB6,3VB7,4MDS,4MM3,4OVZ,4OW0,5C8S,5C8T,5C8U,5F22,5N19,5N5O,5NFY,5TL6,5TL7,5Y3E,5Y3Q,6JYT,6LNQ,6LNY,6LO0,6NUR,6NUS,6W2A,6W79,6WCO,6XHL,6XHN,6XHO,6XMK,6XOA,7C2K

>  <Smiles>
CC(C)(C)c(cc1)ccc1N(C(C(NC1CCCC1)=O)c1cnccc1)C(C1=NCN=C1)=O

$$$$
420996
Actelion Java MolfileCreator 2.0

  0  0  0  0  0  0              0 V3000
M  V30 BEGIN CTAB
M  V30 COUNTS 34 37 0 0 0
M  V30 BEGIN ATOM
M  V30 1 O 0.0 0.0 0.0 0
M  V30 2 C -0.0118 1.5104 0.0 0
M  V30 3 N 1.2744 2.2775 0.0 0
M  V30 4 C -1.3216 2.2775 0.0 0
M  V30 5 C 1.2626 3.7879 0.0 0
M  V30 6 C 2.5607 1.534 0.0 0 CFG=2
M  V30 7 N -2.5489 1.4042 0.0 0
M  V30 8 C -1.7936 3.7171 0.0 0
M  V30 9 C 2.5489 4.5432 0.0 0
M  V30 10 C -0.0472 4.5432 0.0 0
M  V30 11 C 2.5489 0.0472 0.0 0
M  V30 12 C 3.847 2.3011 0.0 0
M  V30 13 C -3.7761 2.3011 0.0 0
M  V30 14 N -3.3041 3.7289 0.0 0
M  V30 15 C 2.5371 6.0537 0.0 0
M  V30 16 C -0.059 6.0537 0.0 0
M  V30 17 C 3.8352 -0.6844 0.0 0
M  V30 18 C 1.239 -0.6844 0.0 0
M  V30 19 O 3.8352 3.8116 0.0 0
M  V30 20 N 5.1332 1.5576 0.0 0
M  V30 21 C 1.2272 6.8089 0.0 0
M  V30 22 N 3.8234 -2.1713 0.0 0
M  V30 23 C 1.2272 -2.1713 0.0 0
M  V30 24 C 6.4195 2.3247 0.0 0
M  V30 25 C 1.2154 8.3194 0.0 0
M  V30 26 C 2.5135 -2.9147 0.0 0
M  V30 27 C 7.7058 1.593 0.0 0
M  V30 28 C 6.4077 3.8352 0.0 0
M  V30 29 C -0.0944 9.0746 0.0 0
M  V30 30 C 2.5017 9.0746 0.0 0
M  V30 31 C 2.5017 7.5877 0.0 0
M  V30 32 C 8.992 2.3483 0.0 0
M  V30 33 C 7.694 4.6022 0.0 0
M  V30 34 C 8.9802 3.8588 0.0 0
M  V30 END ATOM
M  V30 BEGIN BOND
M  V30 1 2 1 2
M  V30 2 1 2 3
M  V30 3 1 2 4
M  V30 4 1 3 5
M  V30 5 1 6 3 CFG=1
M  V30 6 2 4 7
M  V30 7 1 4 8
M  V30 8 2 5 9
M  V30 9 1 5 10
M  V30 10 1 6 11
M  V30 11 1 6 12
M  V30 12 1 7 13
M  V30 13 2 8 14
M  V30 14 1 9 15
M  V30 15 2 10 16
M  V30 16 2 11 17
M  V30 17 1 11 18
M  V30 18 2 12 19
M  V30 19 1 12 20
M  V30 20 2 15 21
M  V30 21 1 17 22
M  V30 22 2 18 23
M  V30 23 1 20 24
M  V30 24 1 21 25
M  V30 25 2 22 26
M  V30 26 1 24 27
M  V30 27 1 24 28
M  V30 28 1 25 29
M  V30 29 1 25 30
M  V30 30 1 25 31
M  V30 31 1 27 32
M  V30 32 1 28 33
M  V30 33 1 32 34
M  V30 34 1 13 14
M  V30 35 1 16 21
M  V30 36 1 23 26
M  V30 37 1 33 34
M  V30 END BOND
M  V30 BEGIN COLLECTION
M  V30 MDLV30/STERAC1 ATOMS=(1 6)
M  V30 END COLLECTION
M  V30 END CTAB
M  END
>  <Ligand InChI>
InChI=1/C27H33N5O2/c1-27(2,3)20-11-13-22(14-12-20)32(26(34)23-17-29-18-30-23)24(19-8-7-15-28-16-19)25(33)31-21-9-5-4-6-10-21/h7-8,11-18,21,24H,4-6,9-10H2,1-3H3,(H,29,30)(H,31,33)

>  <Ligand InChI Key>
MUNFBYOTGGMQOS-UHFFFAOYNA-N

>  <BindingDB MonomerID>
420996

>  <Target Name Assigned by Curator or DataSource>
3C-like proteinase (3CL-PRO)

>  <Target Source Organism According to Curator or DataSource>
Human SARS coronavirus

>  <IC50 (nM)>
2300

>  <PMID>


>  <Ligand HET ID in PDB>
X77

>  <PDB ID(s) for Ligand-Target Complex>
6W63

>  <PubChem CID>


>  <PubChem SID>


>  <ChEMBL ID of Ligand>


>  <DrugBank ID of Ligand>


>  <ZINC ID of Ligand>


>  <PDB ID(s) of Target Chain>
1Q2W,1QZ8,1UJ1,1UK2,1UK3,1UK4,1UW7,1WOF,1Z1I,2A5A,2A5I,2A5K,2ACF,2AHM,2ALV,2AMD,2AMQ,2BX3,2BX4,2C3S,2D2D,2DUC,2FAV,2FE8,2FYG,2G9T,2GA6,2GDT,2GRI,2GT7,2GT8,2GTB,2GX4,2GZ7,2GZ8,2GZ9,2H2Z,2HOB,2HSX,2IDY,2JZF,2K7X,2K87,2KAF,2LIZ,2OP9,2OZK,2RNK,2V6N,2VJ1,2XYQ,2XYR,2XYV,2Z3C,2Z3D,2Z3E,2Z94,2Z9G,2Z9J,2Z9K,2Z9L,2ZU4,2ZU5,3D62,3E91,3E9S,3EA7,3EA8,3EBN,3IWM,3M3V,3MJ5,3R24,3SN8,3SNA,3SNB,3SNC,3SND,3SNE,3SZN,3TIT,3TIU,3TNS,3TNT,3V3M,3VB3,3VB4,3VB5,3VB6,3VB7,4MDS,4MM3,4OVZ,4OW0,5C8S,5C8T,5C8U,5F22,5N19,5N5O,5NFY,5TL6,5TL7,5Y3E,5Y3Q,6JYT,6LNQ,6LNY,6LO0,6NUR,6NUS,6W2A,6W79,6WCO,6XHL,6XHN,6XHO,6XMK,6XOA,7C2K

>  <Smiles>
CC(C)(C)c(cc1)ccc1N(C(C(NC1CCCCC1)=O)c1cnccc1)C(C1=NCN=C1)=O

$$$$
11261
Actelion Java MolfileCreator 2.0

  0  0  0  0  0  0              0 V3000
M  V30 BEGIN CTAB
M  V30 COUNTS 40 42 0 0 0
M  V30 BEGIN ATOM
M  V30 1 O 0.0 0.0 0.0 0
M  V30 2 C -0.0118 1.5105 0.0 0
M  V30 3 O 1.2745 2.2657 0.0 0
M  V30 4 C -1.3217 2.2657 0.0 0
M  V30 5 C 2.5608 1.5341 0.0 0
M  V30 6 C -2.6316 1.5341 0.0 0
M  V30 7 C 3.8471 2.2893 0.0 0
M  V30 8 C -3.9415 2.2893 0.0 0 CFG=1
M  V30 9 N -5.2514 1.5577 0.0 0
M  V30 10 C -3.9533 3.7999 0.0 0
M  V30 11 C -6.5613 2.3129 0.0 0
M  V30 12 C -2.667 4.5551 0.0 0
M  V30 13 O -6.5731 3.8235 0.0 0
M  V30 14 C -7.8712 1.5813 0.0 0 CFG=1
M  V30 15 C -2.6788 6.0657 0.0 0
M  V30 16 C -1.3807 3.8117 0.0 0
M  V30 17 N -9.1811 2.3365 0.0 0
M  V30 18 C -7.883 0.0944 0.0 0
M  V30 19 C -1.3925 6.8327 0.0 0
M  V30 20 C -0.0944 4.5669 0.0 0
M  V30 21 C -10.491 1.6049 0.0 0
M  V30 22 C -6.5967 -0.6372 0.0 0
M  V30 23 C -0.1062 6.0893 0.0 0
M  V30 24 O -10.5028 0.118 0.0 0
M  V30 25 C -11.8009 2.3601 0.0 0
M  V30 26 C -6.6085 -2.1241 0.0 0
M  V30 27 C -5.3104 0.118 0.0 0
M  V30 28 C -13.1109 1.6285 0.0 0
M  V30 29 C -5.3222 -2.8558 0.0 0
M  V30 30 C -4.0241 -0.6136 0.0 0
M  V30 31 C -14.4208 2.3838 0.0 0
M  V30 32 C -4.0359 -2.1005 0.0 0
M  V30 33 C -15.7307 1.6521 0.0 0
M  V30 34 C -14.4326 3.8943 0.0 0
M  V30 35 C -17.0406 2.4074 0.0 0
M  V30 36 C -15.7425 4.6495 0.0 0
M  V30 37 C -17.0524 3.9179 0.0 0
M  V30 38 N -18.3623 4.6731 0.0 0
M  V30 39 C -19.6722 3.9297 0.0 0
M  V30 40 C -18.3741 6.1837 0.0 0
M  V30 END ATOM
M  V30 BEGIN BOND
M  V30 1 2 1 2
M  V30 2 1 2 3
M  V30 3 1 2 4
M  V30 4 1 3 5
M  V30 5 2 4 6
M  V30 6 1 5 7
M  V30 7 1 6 8
M  V30 8 1 8 9 CFG=1
M  V30 9 1 8 10
M  V30 10 1 9 11
M  V30 11 1 10 12
M  V30 12 2 11 13
M  V30 13 1 11 14
M  V30 14 2 12 15
M  V30 15 1 12 16
M  V30 16 1 14 17 CFG=3
M  V30 17 1 14 18
M  V30 18 1 15 19
M  V30 19 2 16 20
M  V30 20 1 17 21
M  V30 21 1 18 22
M  V30 22 2 19 23
M  V30 23 2 21 24
M  V30 24 1 21 25
M  V30 25 2 22 26
M  V30 26 1 22 27
M  V30 27 2 25 28
M  V30 28 1 26 29
M  V30 29 2 27 30
M  V30 30 1 28 31
M  V30 31 2 29 32
M  V30 32 2 31 33
M  V30 33 1 31 34
M  V30 34 1 33 35
M  V30 35 2 34 36
M  V30 36 2 35 37
M  V30 37 1 37 38
M  V30 38 1 38 39
M  V30 39 1 38 40
M  V30 40 1 20 23
M  V30 41 1 30 32
M  V30 42 1 36 37
M  V30 END BOND
M  V30 BEGIN COLLECTION
M  V30 MDLV30/STERAC1 ATOMS=(2 8 14)
M  V30 END COLLECTION
M  V30 END CTAB
M  END
>  <Ligand InChI>
InChI=1S/C33H37N3O4/c1-4-40-32(38)22-18-28(23-26-11-7-5-8-12-26)34-33(39)30(24-27-13-9-6-10-14-27)35-31(37)21-17-25-15-19-29(20-16-25)36(2)3/h5-22,28,30H,4,23-24H2,1-3H3,(H,34,39)(H,35,37)/b21-17+,22-18+/t28-,30+/m1/s1

>  <Ligand InChI Key>
JWPLKCWYGMPRGX-ZIIPDIQWSA-N

>  <BindingDB MonomerID>
11261

>  <Target Name Assigned by Curator or DataSource>
3C-like proteinase (3CL-PRO)

>  <Target Source Organism According to Curator or DataSource>
Human SARS coronavirus

>  <IC50 (nM)>
1000

>  <PMID>
26878082

>  <Ligand HET ID in PDB>


>  <PDB ID(s) for Ligand-Target Complex>


>  <PubChem CID>
11555658

>  <PubChem SID>
46511809

>  <ChEMBL ID of Ligand>


>  <DrugBank ID of Ligand>


>  <ZINC ID of Ligand>
ZINC14947930

>  <PDB ID(s) of Target Chain>
1Q2W,1QZ8,1UJ1,1UK2,1UK3,1UK4,1UW7,1WOF,1Z1I,2A5A,2A5I,2A5K,2ACF,2AHM,2ALV,2AMD,2AMQ,2BX3,2BX4,2C3S,2D2D,2DUC,2FAV,2FE8,2FYG,2G9T,2GA6,2GDT,2GRI,2GT7,2GT8,2GTB,2GX4,2GZ7,2GZ8,2GZ9,2H2Z,2HOB,2HSX,2IDY,2JZF,2K7X,2K87,2KAF,2LIZ,2OP9,2OZK,2RNK,2V6N,2VJ1,2XYQ,2XYR,2XYV,2Z3C,2Z3D,2Z3E,2Z94,2Z9G,2Z9J,2Z9K,2Z9L,2ZU4,2ZU5,3D62,3E91,3E9S,3EA7,3EA8,3EBN,3IWM,3M3V,3MJ5,3R24,3SN8,3SNA,3SNB,3SNC,3SND,3SNE,3SZN,3TIT,3TIU,3TNS,3TNT,3V3M,3VB3,3VB4,3VB5,3VB6,3VB7,4MDS,4MM3,4OVZ,4OW0,5C8S,5C8T,5C8U,5F22,5N19,5N5O,5NFY,5TL6,5TL7,5Y3E,5Y3Q,6JYT,6LNQ,6LNY,6LO0,6NUR,6NUS,6W2A,6W79,6WCO,6XHL,6XHN,6XHO,6XMK,6XOA,7AKU,7C2K,7JOY

>  <Smiles>
CCOC(/C=C/[C@H](Cc1ccccc1)NC([C@H](Cc1ccccc1)NC(/C=C/c(cc1)ccc1N(C)C)=O)=O)=O

$$$$
428988
Actelion Java MolfileCreator 2.0

  0  0  0  0  0  0              0 V3000
M  V30 BEGIN CTAB
M  V30 COUNTS 49 51 0 0 0
M  V30 BEGIN ATOM
M  V30 1 O 0.0 0.0 0.0 0
M  V30 2 C 1.2871 -0.7321 0.0 0
M  V30 3 N 1.2752 -2.2199 0.0 0
M  V30 4 C 2.5742 0.0236 0.0 0
M  V30 5 N 2.5623 -2.9638 0.0 0
M  V30 6 C -0.0354 -2.9638 0.0 0
M  V30 7 C 3.8613 -0.7084 0.0 0
M  V30 8 C 2.5623 1.535 0.0 0
M  V30 9 C 3.8495 -2.1963 0.0 0
M  V30 10 C -1.3461 -2.1963 0.0 0
M  V30 11 C 5.1484 0.0472 0.0 0
M  V30 12 C 3.8495 2.2908 0.0 0
M  V30 13 O 5.1366 -2.9402 0.0 0
M  V30 14 O -1.3579 -0.6848 0.0 0
M  V30 15 C -2.6568 -2.9402 0.0 0 CFG=1
M  V30 16 C 5.1366 1.5586 0.0 0
M  V30 17 N -3.9675 -2.1727 0.0 0
M  V30 18 C -2.6686 -4.4281 0.0 0
M  V30 19 C -5.2783 -2.9166 0.0 0
M  V30 20 C -1.3815 -5.172 0.0 0 CFG=1
M  V30 21 O -5.2901 -4.4044 0.0 0
M  V30 22 C -6.589 -2.1491 0.0 0 CFG=1
M  V30 23 C -1.2398 -6.648 0.0 0
M  V30 24 C -0.0236 -4.5461 0.0 0
M  V30 25 N -7.8997 -2.893 0.0 0
M  V30 26 C -6.6008 -0.6376 0.0 0
M  V30 27 O -2.3616 -7.6399 0.0 0
M  V30 28 N 0.2125 -6.9432 0.0 0
M  V30 29 C 0.9682 -5.6443 0.0 0
M  V30 30 C -9.2104 -2.1254 0.0 0
M  V30 31 C -5.3137 0.118 0.0 0
M  V30 32 O -9.2222 -0.614 0.0 0
M  V30 33 C -10.5211 -2.8694 0.0 0
M  V30 34 C -4.0266 -0.614 0.0 0
M  V30 35 C -5.3255 1.6295 0.0 0
M  V30 36 N -11.8319 -2.1018 0.0 0
M  V30 37 C -10.5329 -4.3572 0.0 0
M  V30 38 C -13.1426 -2.8457 0.0 0
M  V30 39 O -9.2458 -5.1011 0.0 0
M  V30 40 C -11.8437 -5.1011 0.0 0
M  V30 41 O -13.1544 -4.3336 0.0 0
M  V30 42 C -14.4533 -2.0782 0.0 0 CFG=1
M  V30 43 N -15.764 -2.8221 0.0 0
M  V30 44 C -14.4651 -0.5667 0.0 0
M  V30 45 C -17.0747 -2.0546 0.0 0
M  V30 46 C -15.7758 0.1889 0.0 0
M  V30 47 C -13.178 0.1889 0.0 0
M  V30 48 O -17.0866 -0.5431 0.0 0
M  V30 49 C -18.3855 -2.7985 0.0 0
M  V30 END ATOM
M  V30 BEGIN BOND
M  V30 1 2 1 2
M  V30 2 1 2 3
M  V30 3 1 2 4
M  V30 4 1 3 5
M  V30 5 1 3 6
M  V30 6 2 4 7
M  V30 7 1 4 8
M  V30 8 1 5 9
M  V30 9 1 6 10
M  V30 10 1 7 11
M  V30 11 2 8 12
M  V30 12 2 9 13
M  V30 13 2 10 14
M  V30 14 1 10 15
M  V30 15 2 11 16
M  V30 16 1 15 17 CFG=3
M  V30 17 1 15 18
M  V30 18 1 17 19
M  V30 19 1 20 18 CFG=3
M  V30 20 2 19 21
M  V30 21 1 19 22
M  V30 22 1 20 23
M  V30 23 1 20 24
M  V30 24 1 22 25 CFG=1
M  V30 25 1 22 26
M  V30 26 2 23 27
M  V30 27 1 23 28
M  V30 28 1 24 29
M  V30 29 1 25 30
M  V30 30 1 26 31
M  V30 31 2 30 32
M  V30 32 1 30 33
M  V30 33 1 31 34
M  V30 34 1 31 35
M  V30 35 1 33 36
M  V30 36 1 33 37
M  V30 37 1 36 38
M  V30 38 1 37 39
M  V30 39 1 37 40
M  V30 40 2 38 41
M  V30 41 1 38 42
M  V30 42 1 42 43 CFG=1
M  V30 43 1 42 44
M  V30 44 1 43 45
M  V30 45 1 44 46
M  V30 46 1 44 47
M  V30 47 2 45 48
M  V30 48 1 45 49
M  V30 49 1 7 9
M  V30 50 1 12 16
M  V30 51 1 28 29
M  V30 END BOND
M  V30 BEGIN COLLECTION
M  V30 MDLV30/STEABS ATOMS=(4 15 20 22 42)
M  V30 END COLLECTION
M  V30 END CTAB
M  END
>  <Ligand InChI>
InChI=1S/C33H47N7O9/c1-16(2)13-24(37-32(48)27(18(5)41)38-31(47)26(17(3)4)35-19(6)42)30(46)36-23(14-20-11-12-34-28(20)44)25(43)15-40-33(49)22-10-8-7-9-21(22)29(45)39-40/h7-10,16-18,20,23-24,26-27,41H,11-15H2,1-6H3,(H,34,44)(H,35,42)(H,36,46)(H,37,48)(H,38,47)(H,39,45)/t18?,20-,23-,24-,26-,27?/m0/s1

>  <Ligand InChI Key>
OJHHBYMVWJMTGA-XDEPFDFKSA-N

>  <BindingDB MonomerID>
428988

>  <Target Name Assigned by Curator or DataSource>
3C-like proteinase (3CL-PRO)

>  <Target Source Organism According to Curator or DataSource>
Human SARS coronavirus

>  <IC50 (nM)>
2700

>  <PMID>
26878082

>  <Ligand HET ID in PDB>


>  <PDB ID(s) for Ligand-Target Complex>


>  <PubChem CID>


>  <PubChem SID>


>  <ChEMBL ID of Ligand>


>  <DrugBank ID of Ligand>


>  <ZINC ID of Ligand>


>  <PDB ID(s) of Target Chain>
1Q2W,1QZ8,1UJ1,1UK2,1UK3,1UK4,1UW7,1WOF,1Z1I,2A5A,2A5I,2A5K,2ACF,2AHM,2ALV,2AMD,2AMQ,2BX3,2BX4,2C3S,2D2D,2DUC,2FAV,2FE8,2FYG,2G9T,2GA6,2GDT,2GRI,2GT7,2GT8,2GTB,2GX4,2GZ7,2GZ8,2GZ9,2H2Z,2HOB,2HSX,2IDY,2JZF,2K7X,2K87,2KAF,2LIZ,2OP9,2OZK,2RNK,2V6N,2VJ1,2XYQ,2XYR,2XYV,2Z3C,2Z3D,2Z3E,2Z94,2Z9G,2Z9J,2Z9K,2Z9L,2ZU4,2ZU5,3D62,3E91,3E9S,3EA7,3EA8,3EBN,3IWM,3M3V,3MJ5,3R24,3SN8,3SNA,3SNB,3SNC,3SND,3SNE,3SZN,3TIT,3TIU,3TNS,3TNT,3V3M,3VB3,3VB4,3VB5,3VB6,3VB7,4MDS,4MM3,4OVZ,4OW0,5C8S,5C8T,5C8U,5F22,5N19,5N5O,5NFY,5TL6,5TL7,5Y3E,5Y3Q,6JYT,6LNQ,6LNY,6LO0,6NUR,6NUS,6W2A,6W79,6WCO,6XHL,6XHN,6XHO,6XMK,6XOA,7AKU,7C2K,7JOY

>  <Smiles>
CC(C)C[C@@H](C(N[C@@H](C[C@H](CCN1)C1=O)C(CN(C(c1c2cccc1)=O)NC2=O)=O)=O)NC(C(C(C)O)NC([C@H](C(C)C)NC(C)=O)=O)=O

$$$$
428989
Actelion Java MolfileCreator 2.0

  0  0  0  0  0  0              0 V3000
M  V30 BEGIN CTAB
M  V30 COUNTS 56 59 0 0 0
M  V30 BEGIN ATOM
M  V30 1 O 0.0 0.0 0.0 0
M  V30 2 C 0.9675 -1.1209 0.0 0
M  V30 3 N 0.4601 -2.5251 0.0 0
M  V30 4 C 2.4307 -0.8259 0.0 0
M  V30 5 N 1.4277 -3.6461 0.0 0
M  V30 6 C -1.0265 -2.7965 0.0 0
M  V30 7 C 3.3983 -1.9469 0.0 0
M  V30 8 C 2.9145 0.6017 0.0 0
M  V30 9 C 2.8909 -3.3511 0.0 0
M  V30 10 C -2.0177 -1.6519 0.0 0
M  V30 11 C 4.8615 -1.6519 0.0 0
M  V30 12 C 4.3777 0.8967 0.0 0
M  V30 13 O 3.8585 -4.4721 0.0 0
M  V30 14 O -1.5339 -0.2241 0.0 0
M  V30 15 C -3.5045 -1.9233 0.0 0 CFG=1
M  V30 16 C 5.3453 -0.2241 0.0 0
M  V30 17 N -4.4957 -0.7787 0.0 0
M  V30 18 C -4.0119 -3.3275 0.0 0
M  V30 19 C -5.9825 -1.0501 0.0 0
M  V30 20 C -3.0443 -4.4485 0.0 0 CFG=1
M  V30 21 O -6.4899 -2.4543 0.0 0
M  V30 22 C -6.9737 0.0943 0.0 0 CFG=1
M  V30 23 C -3.3983 -5.8999 0.0 0
M  V30 24 C -1.5575 -4.3069 0.0 0
M  V30 25 N -8.4605 -0.1769 0.0 0
M  V30 26 C -6.4899 1.5221 0.0 0
M  V30 27 O -4.7907 -6.4781 0.0 0
M  V30 28 N -2.1239 -6.6669 0.0 0
M  V30 29 C -0.9793 -5.6757 0.0 0
M  V30 30 C -9.4517 0.9675 0.0 0
M  V30 31 C -5.0267 1.8171 0.0 0
M  V30 32 O -8.9679 2.3953 0.0 0
M  V30 33 C -10.9385 0.6961 0.0 0
M  V30 34 C -4.0591 0.6961 0.0 0
M  V30 35 C -4.5429 3.2449 0.0 0
M  V30 36 N -11.4459 -0.7079 0.0 0
M  V30 37 C -11.9297 1.8407 0.0 0
M  V30 38 C -12.9327 -0.9793 0.0 0
M  V30 39 O -13.4164 1.5693 0.0 0
M  V30 40 C -11.4459 3.2685 0.0 0
M  V30 41 O -13.9238 0.1651 0.0 0
M  V30 42 C -13.44 -2.3835 0.0 0 CFG=1
M  V30 43 C -14.4076 2.7139 0.0 0
M  V30 44 N -14.9268 -2.6549 0.0 0
M  V30 45 C -12.4725 -3.5045 0.0 0
M  V30 46 C -13.9238 4.1417 0.0 0
M  V30 47 C -15.4342 -4.0591 0.0 0
M  V30 48 C -12.9799 -4.9087 0.0 0
M  V30 49 C -11.0093 -3.2095 0.0 0
M  V30 50 C -14.915 5.2863 0.0 0
M  V30 51 C -12.4607 4.4367 0.0 0
M  V30 52 O -16.921 -4.3305 0.0 0
M  V30 53 C -14.4666 -5.1801 0.0 0
M  V30 54 C -14.4312 6.7141 0.0 0
M  V30 55 C -11.9769 5.8645 0.0 0
M  V30 56 C -12.9681 7.0091 0.0 0
M  V30 END ATOM
M  V30 BEGIN BOND
M  V30 1 2 1 2
M  V30 2 1 2 3
M  V30 3 1 2 4
M  V30 4 1 3 5
M  V30 5 1 3 6
M  V30 6 2 4 7
M  V30 7 1 4 8
M  V30 8 1 5 9
M  V30 9 1 6 10
M  V30 10 1 7 11
M  V30 11 2 8 12
M  V30 12 2 9 13
M  V30 13 2 10 14
M  V30 14 1 10 15
M  V30 15 2 11 16
M  V30 16 1 15 17 CFG=3
M  V30 17 1 15 18
M  V30 18 1 17 19
M  V30 19 1 20 18 CFG=3
M  V30 20 2 19 21
M  V30 21 1 19 22
M  V30 22 1 20 23
M  V30 23 1 20 24
M  V30 24 1 22 25 CFG=1
M  V30 25 1 22 26
M  V30 26 2 23 27
M  V30 27 1 23 28
M  V30 28 1 24 29
M  V30 29 1 25 30
M  V30 30 1 26 31
M  V30 31 2 30 32
M  V30 32 1 30 33
M  V30 33 1 31 34
M  V30 34 1 31 35
M  V30 35 1 33 36
M  V30 36 1 33 37
M  V30 37 1 36 38
M  V30 38 1 37 39
M  V30 39 1 37 40
M  V30 40 2 38 41
M  V30 41 1 38 42
M  V30 42 1 39 43
M  V30 43 1 42 44 CFG=3
M  V30 44 1 42 45
M  V30 45 1 43 46
M  V30 46 1 44 47
M  V30 47 1 45 48
M  V30 48 1 45 49
M  V30 49 2 46 50
M  V30 50 1 46 51
M  V30 51 2 47 52
M  V30 52 1 47 53
M  V30 53 1 50 54
M  V30 54 2 51 55
M  V30 55 2 54 56
M  V30 56 1 7 9
M  V30 57 1 12 16
M  V30 58 1 28 29
M  V30 59 1 55 56
M  V30 END BOND
M  V30 BEGIN COLLECTION
M  V30 MDLV30/STEABS ATOMS=(4 15 20 22 42)
M  V30 END COLLECTION
M  V30 END CTAB
M  END
>  <Ligand InChI>
InChI=1S/C40H53N7O9/c1-22(2)18-31(44-39(54)34(24(5)56-21-26-12-8-7-9-13-26)45-38(53)33(23(3)4)42-25(6)48)37(52)43-30(19-27-16-17-41-35(27)50)32(49)20-47-40(55)29-15-11-10-14-28(29)36(51)46-47/h7-15,22-24,27,30-31,33-34H,16-21H2,1-6H3,(H,41,50)(H,42,48)(H,43,52)(H,44,54)(H,45,53)(H,46,51)/t24?,27-,30-,31-,33-,34?/m0/s1

>  <Ligand InChI Key>
WVCBNUTYVOLXDN-FWKPESFTSA-N

>  <BindingDB MonomerID>
428989

>  <Target Name Assigned by Curator or DataSource>
3C-like proteinase (3CL-PRO)

>  <Target Source Organism According to Curator or DataSource>
Human SARS coronavirus

>  <IC50 (nM)>
2900

>  <PMID>
26878082

>  <Ligand HET ID in PDB>


>  <PDB ID(s) for Ligand-Target Complex>


>  <PubChem CID>


>  <PubChem SID>


>  <ChEMBL ID of Ligand>


>  <DrugBank ID of Ligand>


>  <ZINC ID of Ligand>


>  <PDB ID(s) of Target Chain>
1Q2W,1QZ8,1UJ1,1UK2,1UK3,1UK4,1UW7,1WOF,1Z1I,2A5A,2A5I,2A5K,2ACF,2AHM,2ALV,2AMD,2AMQ,2BX3,2BX4,2C3S,2D2D,2DUC,2FAV,2FE8,2FYG,2G9T,2GA6,2GDT,2GRI,2GT7,2GT8,2GTB,2GX4,2GZ7,2GZ8,2GZ9,2H2Z,2HOB,2HSX,2IDY,2JZF,2K7X,2K87,2KAF,2LIZ,2OP9,2OZK,2RNK,2V6N,2VJ1,2XYQ,2XYR,2XYV,2Z3C,2Z3D,2Z3E,2Z94,2Z9G,2Z9J,2Z9K,2Z9L,2ZU4,2ZU5,3D62,3E91,3E9S,3EA7,3EA8,3EBN,3IWM,3M3V,3MJ5,3R24,3SN8,3SNA,3SNB,3SNC,3SND,3SNE,3SZN,3TIT,3TIU,3TNS,3TNT,3V3M,3VB3,3VB4,3VB5,3VB6,3VB7,4MDS,4MM3,4OVZ,4OW0,5C8S,5C8T,5C8U,5F22,5N19,5N5O,5NFY,5TL6,5TL7,5Y3E,5Y3Q,6JYT,6LNQ,6LNY,6LO0,6NUR,6NUS,6W2A,6W79,6WCO,6XHL,6XHN,6XHO,6XMK,6XOA,7AKU,7C2K,7JOY

>  <Smiles>
CC(C)C[C@@H](C(N[C@@H](C[C@H](CCN1)C1=O)C(CN(C(c1c2cccc1)=O)NC2=O)=O)=O)NC(C(C(C)OCc1ccccc1)NC([C@H](C(C)C)NC(C)=O)=O)=O

$$$$
428990
Actelion Java MolfileCreator 2.0

  0  0  0  0  0  0              0 V3000
M  V30 BEGIN CTAB
M  V30 COUNTS 59 62 0 0 0
M  V30 BEGIN ATOM
M  V30 1 O 0.0 0.0 0.0 0
M  V30 2 N 0.4826 1.4243 0.0 0 CHG=1
M  V30 3 O 1.9423 1.7186 0.0 0 CHG=-1
M  V30 4 C -0.5061 2.5662 0.0 0
M  V30 5 C -1.9894 2.2954 0.0 0
M  V30 6 C -0.0235 3.9906 0.0 0
M  V30 7 C -2.4956 0.8946 0.0 0
M  V30 8 C -2.9782 3.4373 0.0 0
M  V30 9 C -1.0123 5.1324 0.0 0
M  V30 10 O -1.5303 -0.2236 0.0 0
M  V30 11 N -3.9788 0.6239 0.0 0
M  V30 12 C -4.4615 3.1666 0.0 0
M  V30 13 C -2.4956 4.8617 0.0 0
M  V30 14 N -4.9676 1.7657 0.0 0
M  V30 15 O -5.4503 4.3084 0.0 0
M  V30 16 C -6.4509 1.495 0.0 0
M  V30 17 C -7.4397 2.6368 0.0 0
M  V30 18 O -6.9571 4.0612 0.0 0
M  V30 19 C -8.923 2.3661 0.0 0 CFG=1
M  V30 20 N -9.9118 3.5079 0.0 0
M  V30 21 C -9.4291 0.9652 0.0 0
M  V30 22 C -11.395 3.2372 0.0 0
M  V30 23 C -8.4639 -0.153 0.0 0 CFG=1
M  V30 24 O -11.9012 1.8363 0.0 0
M  V30 25 C -12.3839 4.379 0.0 0 CFG=1
M  V30 26 C -8.817 -1.6009 0.0 0
M  V30 27 C -6.9806 -0.0117 0.0 0
M  V30 28 N -13.8671 4.1083 0.0 0
M  V30 29 C -11.9012 5.8034 0.0 0
M  V30 30 O -10.2061 -2.1777 0.0 0
M  V30 31 N -7.5457 -2.3661 0.0 0
M  V30 32 C -6.4038 -1.3772 0.0 0
M  V30 33 C -14.8559 5.2502 0.0 0
M  V30 34 C -10.4415 6.0977 0.0 0
M  V30 35 O -14.3733 6.6745 0.0 0
M  V30 36 C -16.3392 4.9794 0.0 0
M  V30 37 C -9.4762 4.9794 0.0 0
M  V30 38 C -9.9589 7.5221 0.0 0
M  V30 39 N -16.8454 3.5786 0.0 0
M  V30 40 C -17.328 6.1213 0.0 0
M  V30 41 C -18.3286 3.3078 0.0 0
M  V30 42 O -18.8112 5.8505 0.0 0
M  V30 43 C -16.8454 7.5457 0.0 0
M  V30 44 O -19.3174 4.4497 0.0 0
M  V30 45 C -18.8348 1.907 0.0 0 CFG=1
M  V30 46 C -19.8001 6.9924 0.0 0
M  V30 47 N -20.318 1.6362 0.0 0
M  V30 48 C -17.8695 0.7887 0.0 0
M  V30 49 C -19.3174 8.4168 0.0 0
M  V30 50 C -20.8242 0.2354 0.0 0
M  V30 51 C -18.3757 -0.6121 0.0 0
M  V30 52 C -16.4098 1.083 0.0 0
M  V30 53 C -20.3063 9.5586 0.0 0
M  V30 54 C -17.8577 8.7111 0.0 0
M  V30 55 O -22.3075 -0.0353 0.0 0
M  V30 56 C -19.8589 -0.8828 0.0 0
M  V30 57 C -19.8236 10.983 0.0 0
M  V30 58 C -17.3751 10.1354 0.0 0
M  V30 59 C -18.3639 11.2773 0.0 0
M  V30 END ATOM
M  V30 BEGIN BOND
M  V30 1 2 1 2
M  V30 2 1 2 3
M  V30 3 1 2 4
M  V30 4 2 4 5
M  V30 5 1 4 6
M  V30 6 1 5 7
M  V30 7 1 5 8
M  V30 8 2 6 9
M  V30 9 2 7 10
M  V30 10 1 7 11
M  V30 11 1 8 12
M  V30 12 2 8 13
M  V30 13 1 11 14
M  V30 14 2 12 15
M  V30 15 1 14 16
M  V30 16 1 16 17
M  V30 17 2 17 18
M  V30 18 1 17 19
M  V30 19 1 19 20 CFG=3
M  V30 20 1 19 21
M  V30 21 1 20 22
M  V30 22 1 23 21 CFG=3
M  V30 23 2 22 24
M  V30 24 1 22 25
M  V30 25 1 23 26
M  V30 26 1 23 27
M  V30 27 1 25 28 CFG=1
M  V30 28 1 25 29
M  V30 29 2 26 30
M  V30 30 1 26 31
M  V30 31 1 27 32
M  V30 32 1 28 33
M  V30 33 1 29 34
M  V30 34 2 33 35
M  V30 35 1 33 36
M  V30 36 1 34 37
M  V30 37 1 34 38
M  V30 38 1 36 39
M  V30 39 1 36 40
M  V30 40 1 39 41
M  V30 41 1 40 42
M  V30 42 1 40 43
M  V30 43 2 41 44
M  V30 44 1 41 45
M  V30 45 1 42 46
M  V30 46 1 45 47 CFG=3
M  V30 47 1 45 48
M  V30 48 1 46 49
M  V30 49 1 47 50
M  V30 50 1 48 51
M  V30 51 1 48 52
M  V30 52 2 49 53
M  V30 53 1 49 54
M  V30 54 2 50 55
M  V30 55 1 50 56
M  V30 56 1 53 57
M  V30 57 2 54 58
M  V30 58 2 57 59
M  V30 59 1 9 13
M  V30 60 1 12 14
M  V30 61 1 31 32
M  V30 62 1 58 59
M  V30 END BOND
M  V30 BEGIN COLLECTION
M  V30 MDLV30/STEABS ATOMS=(4 19 23 25 45)
M  V30 END COLLECTION
M  V30 END CTAB
M  END
>  <Ligand InChI>
InChI=1S/C40H52N8O11/c1-21(2)17-29(44-39(55)34(23(5)59-20-25-11-8-7-9-12-25)45-38(54)33(22(3)4)42-24(6)49)36(52)43-28(18-26-15-16-41-35(26)51)31(50)19-47-40(56)27-13-10-14-30(48(57)58)32(27)37(53)46-47/h7-14,21-23,26,28-29,33-34H,15-20H2,1-6H3,(H,41,51)(H,42,49)(H,43,52)(H,44,55)(H,45,54)(H,46,53)/t23?,26-,28-,29-,33-,34?/m0/s1

>  <Ligand InChI Key>
TYWILPQKGVLDRA-UIQXPBATSA-N

>  <BindingDB MonomerID>
428990

>  <Target Name Assigned by Curator or DataSource>
3C-like proteinase (3CL-PRO)

>  <Target Source Organism According to Curator or DataSource>
Human SARS coronavirus

>  <IC50 (nM)>
600

>  <PMID>
26878082

>  <Ligand HET ID in PDB>


>  <PDB ID(s) for Ligand-Target Complex>


>  <PubChem CID>


>  <PubChem SID>


>  <ChEMBL ID of Ligand>


>  <DrugBank ID of Ligand>


>  <ZINC ID of Ligand>


>  <PDB ID(s) of Target Chain>
1Q2W,1QZ8,1UJ1,1UK2,1UK3,1UK4,1UW7,1WOF,1Z1I,2A5A,2A5I,2A5K,2ACF,2AHM,2ALV,2AMD,2AMQ,2BX3,2BX4,2C3S,2D2D,2DUC,2FAV,2FE8,2FYG,2G9T,2GA6,2GDT,2GRI,2GT7,2GT8,2GTB,2GX4,2GZ7,2GZ8,2GZ9,2H2Z,2HOB,2HSX,2IDY,2JZF,2K7X,2K87,2KAF,2LIZ,2OP9,2OZK,2RNK,2V6N,2VJ1,2XYQ,2XYR,2XYV,2Z3C,2Z3D,2Z3E,2Z94,2Z9G,2Z9J,2Z9K,2Z9L,2ZU4,2ZU5,3D62,3E91,3E9S,3EA7,3EA8,3EBN,3IWM,3M3V,3MJ5,3R24,3SN8,3SNA,3SNB,3SNC,3SND,3SNE,3SZN,3TIT,3TIU,3TNS,3TNT,3V3M,3VB3,3VB4,3VB5,3VB6,3VB7,4MDS,4MM3,4OVZ,4OW0,5C8S,5C8T,5C8U,5F22,5N19,5N5O,5NFY,5TL6,5TL7,5Y3E,5Y3Q,6JYT,6LNQ,6LNY,6LO0,6NUR,6NUS,6W2A,6W79,6WCO,6XHL,6XHN,6XHO,6XMK,6XOA,7AKU,7C2K,7JOY

>  <Smiles>
CC(C)C[C@@H](C(N[C@@H](C[C@H](CCN1)C1=O)C(CN(C(c1cccc([N+]([O-])=O)c11)=O)NC1=O)=O)=O)NC(C(C(C)OCc1ccccc1)NC([C@H](C(C)C)NC(C)=O)=O)=O

$$$$
428994
Actelion Java MolfileCreator 2.0

  0  0  0  0  0  0              0 V3000
M  V30 BEGIN CTAB
M  V30 COUNTS 52 54 0 0 0
M  V30 BEGIN ATOM
M  V30 1 O 0.0 0.0 0.0 0
M  V30 2 N -0.0117 1.508 0.0 0 CHG=1
M  V30 3 O 1.2724 2.2621 0.0 0 CHG=-1
M  V30 4 C -1.3195 2.2621 0.0 0
M  V30 5 C -2.6273 1.5316 0.0 0
M  V30 6 C -1.3313 3.7702 0.0 0
M  V30 7 C -2.6391 0.0471 0.0 0
M  V30 8 C -3.9351 2.2857 0.0 0
M  V30 9 C -2.6391 4.5242 0.0 0
M  V30 10 O -1.3549 -0.6951 0.0 0
M  V30 11 N -3.9469 -0.6951 0.0 0
M  V30 12 C -5.2429 1.5552 0.0 0
M  V30 13 C -3.9469 3.7938 0.0 0
M  V30 14 N -5.2547 0.0706 0.0 0
M  V30 15 O -6.5507 2.3092 0.0 0
M  V30 16 C -6.5625 -0.6715 0.0 0
M  V30 17 C -7.8703 0.0942 0.0 0
M  V30 18 O -7.8821 1.6023 0.0 0
M  V30 19 C -9.1781 -0.648 0.0 0 CFG=1
M  V30 20 N -10.4859 0.1178 0.0 0
M  V30 21 C -9.1899 -2.1325 0.0 0
M  V30 22 C -11.7937 -0.6244 0.0 0
M  V30 23 C -7.9057 -2.8748 0.0 0 CFG=1
M  V30 24 O -11.8055 -2.1089 0.0 0
M  V30 25 C -13.1015 0.1413 0.0 0 CFG=1
M  V30 26 C -7.7643 -4.3475 0.0 0
M  V30 27 C -6.5507 -2.2503 0.0 0
M  V30 28 N -14.4093 -0.6008 0.0 0
M  V30 29 C -13.1133 1.6494 0.0 0
M  V30 30 O -8.8836 -5.3372 0.0 0
M  V30 31 N -6.3151 -4.6421 0.0 0
M  V30 32 C -5.561 -3.346 0.0 0
M  V30 33 C -15.7171 0.1649 0.0 0
M  V30 34 C -11.8291 2.4035 0.0 0
M  V30 35 O -15.7289 1.673 0.0 0
M  V30 36 C -17.0249 -0.5773 0.0 0
M  V30 37 C -10.5448 1.673 0.0 0
M  V30 38 C -11.8408 3.9116 0.0 0
M  V30 39 N -18.3327 0.1885 0.0 0
M  V30 40 C -17.0367 -2.0618 0.0 0
M  V30 41 C -19.6405 -0.5537 0.0 0
M  V30 42 O -15.7525 -2.8041 0.0 0
M  V30 43 C -18.3445 -2.8041 0.0 0
M  V30 44 O -19.6523 -2.0382 0.0 0
M  V30 45 C -20.9483 0.212 0.0 0 CFG=1
M  V30 46 N -22.2561 -0.5301 0.0 0
M  V30 47 C -20.9601 1.7201 0.0 0
M  V30 48 C -23.5639 0.2356 0.0 0
M  V30 49 C -22.2679 2.4742 0.0 0
M  V30 50 C -19.6759 2.4742 0.0 0
M  V30 51 O -23.5757 1.7437 0.0 0
M  V30 52 C -24.8717 -0.5066 0.0 0
M  V30 END ATOM
M  V30 BEGIN BOND
M  V30 1 2 1 2
M  V30 2 1 2 3
M  V30 3 1 2 4
M  V30 4 2 4 5
M  V30 5 1 4 6
M  V30 6 1 5 7
M  V30 7 1 5 8
M  V30 8 2 6 9
M  V30 9 2 7 10
M  V30 10 1 7 11
M  V30 11 1 8 12
M  V30 12 2 8 13
M  V30 13 1 11 14
M  V30 14 2 12 15
M  V30 15 1 14 16
M  V30 16 1 16 17
M  V30 17 2 17 18
M  V30 18 1 17 19
M  V30 19 1 19 20 CFG=3
M  V30 20 1 19 21
M  V30 21 1 20 22
M  V30 22 1 23 21 CFG=3
M  V30 23 2 22 24
M  V30 24 1 22 25
M  V30 25 1 23 26
M  V30 26 1 23 27
M  V30 27 1 25 28 CFG=1
M  V30 28 1 25 29
M  V30 29 2 26 30
M  V30 30 1 26 31
M  V30 31 1 27 32
M  V30 32 1 28 33
M  V30 33 1 29 34
M  V30 34 2 33 35
M  V30 35 1 33 36
M  V30 36 1 34 37
M  V30 37 1 34 38
M  V30 38 1 36 39
M  V30 39 1 36 40
M  V30 40 1 39 41
M  V30 41 1 40 42
M  V30 42 1 40 43
M  V30 43 2 41 44
M  V30 44 1 41 45
M  V30 45 1 45 46 CFG=1
M  V30 46 1 45 47
M  V30 47 1 46 48
M  V30 48 1 47 49
M  V30 49 1 47 50
M  V30 50 2 48 51
M  V30 51 1 48 52
M  V30 52 1 9 13
M  V30 53 1 12 14
M  V30 54 1 31 32
M  V30 END BOND
M  V30 BEGIN COLLECTION
M  V30 MDLV30/STEABS ATOMS=(4 19 23 25 45)
M  V30 END COLLECTION
M  V30 END CTAB
M  END
>  <Ligand InChI>
InChI=1S/C33H46N8O11/c1-15(2)12-22(37-32(49)27(17(5)42)38-31(48)26(16(3)4)35-18(6)43)29(46)36-21(13-19-10-11-34-28(19)45)24(44)14-40-33(50)20-8-7-9-23(41(51)52)25(20)30(47)39-40/h7-9,15-17,19,21-22,26-27,42H,10-14H2,1-6H3,(H,34,45)(H,35,43)(H,36,46)(H,37,49)(H,38,48)(H,39,47)/t17?,19-,21-,22-,26-,27?/m0/s1

>  <Ligand InChI Key>
WLFJZNRFNKLNOW-IZHLMMGISA-N

>  <BindingDB MonomerID>
428994

>  <Target Name Assigned by Curator or DataSource>
3C-like proteinase (3CL-PRO)

>  <Target Source Organism According to Curator or DataSource>
Human SARS coronavirus

>  <IC50 (nM)>
3400

>  <PMID>
26878082

>  <Ligand HET ID in PDB>


>  <PDB ID(s) for Ligand-Target Complex>


>  <PubChem CID>


>  <PubChem SID>


>  <ChEMBL ID of Ligand>


>  <DrugBank ID of Ligand>


>  <ZINC ID of Ligand>


>  <PDB ID(s) of Target Chain>
1Q2W,1QZ8,1UJ1,1UK2,1UK3,1UK4,1UW7,1WOF,1Z1I,2A5A,2A5I,2A5K,2ACF,2AHM,2ALV,2AMD,2AMQ,2BX3,2BX4,2C3S,2D2D,2DUC,2FAV,2FE8,2FYG,2G9T,2GA6,2GDT,2GRI,2GT7,2GT8,2GTB,2GX4,2GZ7,2GZ8,2GZ9,2H2Z,2HOB,2HSX,2IDY,2JZF,2K7X,2K87,2KAF,2LIZ,2OP9,2OZK,2RNK,2V6N,2VJ1,2XYQ,2XYR,2XYV,2Z3C,2Z3D,2Z3E,2Z94,2Z9G,2Z9J,2Z9K,2Z9L,2ZU4,2ZU5,3D62,3E91,3E9S,3EA7,3EA8,3EBN,3IWM,3M3V,3MJ5,3R24,3SN8,3SNA,3SNB,3SNC,3SND,3SNE,3SZN,3TIT,3TIU,3TNS,3TNT,3V3M,3VB3,3VB4,3VB5,3VB6,3VB7,4MDS,4MM3,4OVZ,4OW0,5C8S,5C8T,5C8U,5F22,5N19,5N5O,5NFY,5TL6,5TL7,5Y3E,5Y3Q,6JYT,6LNQ,6LNY,6LO0,6NUR,6NUS,6W2A,6W79,6WCO,6XHL,6XHN,6XHO,6XMK,6XOA,7AKU,7C2K,7JOY

>  <Smiles>
CC(C)C[C@@H](C(N[C@@H](C[C@H](CCN1)C1=O)C(CN(C(c1cccc([N+]([O-])=O)c11)=O)NC1=O)=O)=O)NC(C(C(C)O)NC([C@H](C(C)C)NC(C)=O)=O)=O

$$$$
11234
Actelion Java MolfileCreator 2.0

  0  0  0  0  0  0              0 V3000
M  V30 BEGIN CTAB
M  V30 COUNTS 33 35 0 0 0
M  V30 BEGIN ATOM
M  V30 1 Cl 0.0 0.0 0.0 0
M  V30 2 C -0.0118 -1.4899 0.0 0
M  V30 3 C -1.3243 -2.2349 0.0 0
M  V30 4 C 1.277 -2.2349 0.0 0
M  V30 5 N -2.6369 -1.4781 0.0 0
M  V30 6 C -1.3362 -3.7248 0.0 0
M  V30 7 C 1.2652 -3.7248 0.0 0
M  V30 8 C -3.9495 -2.2112 0.0 0
M  V30 9 C -0.0472 -4.4579 0.0 0
M  V30 10 N 2.5541 -4.4579 0.0 0 CHG=1
M  V30 11 O -3.9613 -3.7011 0.0 0
M  V30 12 C -5.262 -1.4544 0.0 0 CFG=1
M  V30 13 O 3.9968 -4.0559 0.0 0
M  V30 14 O 2.5423 -5.9479 0.0 0 CHG=-1
M  V30 15 N -6.5746 -2.1876 0.0 0
M  V30 16 C -5.2739 0.0591 0.0 0
M  V30 17 C -7.8872 -1.4308 0.0 0
M  V30 18 C -3.9849 0.8159 0.0 0
M  V30 19 O -7.899 0.0827 0.0 0
M  V30 20 C -9.1997 -2.1639 0.0 0
M  V30 21 C -3.9968 2.3295 0.0 0
M  V30 22 C -2.696 0.0827 0.0 0
M  V30 23 C -10.5123 -1.4071 0.0 0
M  V30 24 C -9.2115 -3.6538 0.0 0
M  V30 25 C -2.7078 3.0862 0.0 0
M  V30 26 C -1.4071 0.8395 0.0 0
M  V30 27 C -11.8248 -2.1403 0.0 0
M  V30 28 C -10.5241 -4.387 0.0 0
M  V30 29 C -1.4189 2.3531 0.0 0
M  V30 30 C -11.8367 -3.6302 0.0 0
M  V30 31 N -13.1492 -4.3633 0.0 0
M  V30 32 C -13.1611 -5.8533 0.0 0
M  V30 33 C -14.4618 -3.6065 0.0 0
M  V30 END ATOM
M  V30 BEGIN BOND
M  V30 1 1 1 2
M  V30 2 2 2 3
M  V30 3 1 2 4
M  V30 4 1 3 5
M  V30 5 1 3 6
M  V30 6 2 4 7
M  V30 7 1 5 8
M  V30 8 2 6 9
M  V30 9 1 7 10
M  V30 10 2 8 11
M  V30 11 1 8 12
M  V30 12 2 10 13
M  V30 13 1 10 14
M  V30 14 1 12 15 CFG=1
M  V30 15 1 12 16
M  V30 16 1 15 17
M  V30 17 1 16 18
M  V30 18 2 17 19
M  V30 19 1 17 20
M  V30 20 2 18 21
M  V30 21 1 18 22
M  V30 22 2 20 23
M  V30 23 1 20 24
M  V30 24 1 21 25
M  V30 25 2 22 26
M  V30 26 1 23 27
M  V30 27 2 24 28
M  V30 28 2 25 29
M  V30 29 2 27 30
M  V30 30 1 30 31
M  V30 31 1 31 32
M  V30 32 1 31 33
M  V30 33 1 7 9
M  V30 34 1 26 29
M  V30 35 1 28 30
M  V30 END BOND
M  V30 BEGIN COLLECTION
M  V30 MDLV30/STERAC1 ATOMS=(1 12)
M  V30 END COLLECTION
M  V30 END CTAB
M  END
>  <Ligand InChI>
InChI=1S/C24H23ClN4O4/c1-28(2)18-10-8-17(9-11-18)23(30)27-22(14-16-6-4-3-5-7-16)24(31)26-21-13-12-19(29(32)33)15-20(21)25/h3-13,15,22H,14H2,1-2H3,(H,26,31)(H,27,30)/t22-/m0/s1

>  <Ligand InChI Key>
NBBWJEWPUKPHPZ-QFIPXVFZSA-N

>  <BindingDB MonomerID>
11234

>  <Target Name Assigned by Curator or DataSource>
3C-like proteinase (3CL-PRO)

>  <Target Source Organism According to Curator or DataSource>
Human SARS coronavirus

>  <IC50 (nM)>
60

>  <PMID>
26878082

>  <Ligand HET ID in PDB>


>  <PDB ID(s) for Ligand-Target Complex>


>  <PubChem CID>
11317290

>  <PubChem SID>
46511786

>  <ChEMBL ID of Ligand>


>  <DrugBank ID of Ligand>


>  <ZINC ID of Ligand>
ZINC13646492

>  <PDB ID(s) of Target Chain>
1Q2W,1QZ8,1UJ1,1UK2,1UK3,1UK4,1UW7,1WOF,1Z1I,2A5A,2A5I,2A5K,2ACF,2AHM,2ALV,2AMD,2AMQ,2BX3,2BX4,2C3S,2D2D,2DUC,2FAV,2FE8,2FYG,2G9T,2GA6,2GDT,2GRI,2GT7,2GT8,2GTB,2GX4,2GZ7,2GZ8,2GZ9,2H2Z,2HOB,2HSX,2IDY,2JZF,2K7X,2K87,2KAF,2LIZ,2OP9,2OZK,2RNK,2V6N,2VJ1,2XYQ,2XYR,2XYV,2Z3C,2Z3D,2Z3E,2Z94,2Z9G,2Z9J,2Z9K,2Z9L,2ZU4,2ZU5,3D62,3E91,3E9S,3EA7,3EA8,3EBN,3IWM,3M3V,3MJ5,3R24,3SN8,3SNA,3SNB,3SNC,3SND,3SNE,3SZN,3TIT,3TIU,3TNS,3TNT,3V3M,3VB3,3VB4,3VB5,3VB6,3VB7,4MDS,4MM3,4OVZ,4OW0,5C8S,5C8T,5C8U,5F22,5N19,5N5O,5NFY,5TL6,5TL7,5Y3E,5Y3Q,6JYT,6LNQ,6LNY,6LO0,6NUR,6NUS,6W2A,6W79,6WCO,6XHL,6XHN,6XHO,6XMK,6XOA,7AKU,7C2K,7JOY

>  <Smiles>
CN(C)c(cc1)ccc1C(NC(Cc1ccccc1)C(Nc(ccc([N+]([O-])=O)c1)c1Cl)=O)=O

$$$$
